Geom Title=Orleans Parish - Existing Conditions
Program Version=5.00
Viewing Rectangle=-0.2029 , 0.4871 , 0.939 ,-0.0082 

Junct Name=17th-Wash       
Junct Desc=, 0 , 0 ,-1 ,0
Junct X Y & Text X Y=-0.0762856,0.5241935,-0.0762856,0.5241935
Up River,Reach=Washington      ,1               
Up River,Reach=17th Street     ,3               
Dn River,Reach=17th Street     ,2               
Junc L&A=25,
Junc L&A=20,

Junct Name=Aud-17th        
Junct Desc=, 0 , 0 ,-1 ,0
Junct X Y & Text X Y=0.0342443,0.3028521,0.0342443,0.3028521
Up River,Reach=Audubon         ,1               
Up River,Reach=ClaiTo17th      ,1               
Dn River,Reach=17th Street     ,3               
Junc L&A=20,
Junc L&A=20,

Junct Name=Claib1-2        
Junct Desc=, 0 , 0 ,-1 ,0
Junct X Y & Text X Y=0.0841506,0.1970046,0.0841506,0.1970046
Up River,Reach=Claiborne       ,2               
Dn River,Reach=Claiborne       ,1               
Dn River,Reach=ClaiTo17th      ,1               
Junc L&A=20,
Junc L&A=20,

Junct Name=Nap1-2          
Junct Desc=, 0 , 0 ,-1 ,0
Junct X Y & Text X Y=0.1486314,0.2615207,0.1486314,0.2615207
Up River,Reach=Claiborne       ,1               
Up River,Reach=Napoleon        ,2               
Dn River,Reach=Napoleon        ,1               
Junc L&A=20,
Junc L&A=20,

Junct Name=Wash1-2         
Junct Desc=, 0 , 0 ,-1 ,0
Junct X Y & Text X Y=0.1927354,0.3052488,0.1927354,0.3052488
Up River,Reach=Napoleon        ,1               
Up River,Reach=Wash-Orleans    ,1               
Up River,Reach=Washington      ,2               
Dn River,Reach=Washington      ,1               
Junc L&A=50,
Junc L&A=50,
Junc L&A=50,

River Reach=Audubon         ,1               
Reach XY= 4 
      -0.0955729       0.0184332       -0.065619       0.0771889
      -0.1105499       0.0979263       0.0342443       0.3028521
Rch Text X Y=-0.0631013,0.0895738
Reverse River Text= 0 

Type RM Length L Ch R = 1 ,5000    ,199.6,199.6,199.6
Node Last Edited Time=Dec/08/2005 10:23:03
#Sta/Elev= 4 
       0       0       0     -11      12     -11      12       0
#Mann= 3 , 0 , 0 
       0     .03       0       0     .02       0      12     .03       0
#XS Lid=3
       0      20      -1       6      20       0      12      20      -1
XS Deck Add Preissmann Slot
Bank Sta=0,12
XS Rating Curve= 0 ,0
XS HTab Starting El and Incr=-11,1, 50 
XS HTab Horizontal Distribution= 5 , 5 , 5 
Exp/Cntr=0.3,0.1

Type RM Length L Ch R = 1 ,4800.4* ,199.6,199.6,199.6
Node Last Edited Time=Dec/08/2005 10:23:03
#Sta/Elev= 4 
       0       0       0  -11.04      12  -11.04      12       0
#Mann= 3 , 0 , 0 
       0     .02       0       0     .02       0      12     .02       0
#XS Lid=3
       0      20      -1       6      20       0      12      20      -1
XS Deck Add Preissmann Slot
Bank Sta=0,12
XS Rating Curve= 0 ,0
XS HTab Starting El and Incr=-11,1, 50 
XS HTab Horizontal Distribution= 5 , 5 , 5 
Exp/Cntr=0.3,0.1

Type RM Length L Ch R = 1 ,4600.8* ,199.6,199.6,199.6
Node Last Edited Time=Dec/08/2005 10:23:03
#Sta/Elev= 4 
       0       0       0  -11.08      12  -11.08      12       0
#Mann= 3 , 0 , 0 
       0     .02       0       0     .02       0      12     .02       0
#XS Lid=3
       0      20      -1       6      20       0      12      20      -1
XS Deck Add Preissmann Slot
Bank Sta=0,12
XS Rating Curve= 0 ,0
XS HTab Starting El and Incr=-11,1, 50 
XS HTab Horizontal Distribution= 5 , 5 , 5 
Exp/Cntr=0.3,0.1

Type RM Length L Ch R = 1 ,4401.2* ,199.6,199.6,199.6
Node Last Edited Time=Aug/06/2010 07:27:52
#Sta/Elev= 4 
       0       0       0  -11.12      12  -11.12      12       0
#Mann= 3 , 0 , 0 
       0     .02       0       0     .02       0      12     .02       0
#XS Lid=3
       0      20      -1       6      20       0      12      20      -1
XS Deck Add Preissmann Slot
Bank Sta=0,12
XS Rating Curve= 0 ,0
XS HTab Starting El and Incr=-11,1, 50 
XS HTab Horizontal Distribution= 5 , 5 , 5 
Minor Loss Coefficient=0.008
Exp/Cntr=0.3,0.1

Type RM Length L Ch R = 1 ,4201.6* ,199.6,199.6,199.6
Node Last Edited Time=Aug/06/2010 07:27:52
#Sta/Elev= 4 
       0       0       0  -11.16      12  -11.16      12       0
#Mann= 3 , 0 , 0 
       0     .02       0       0     .02       0      12     .02       0
#XS Lid=3
       0      20      -1       6      20       0      12      20      -1
XS Deck Add Preissmann Slot
Bank Sta=0,12
XS Rating Curve= 0 ,0
XS HTab Starting El and Incr=-11,1, 50 
XS HTab Horizontal Distribution= 5 , 5 , 5 
Minor Loss Coefficient=0.008
Exp/Cntr=0.3,0.1

Type RM Length L Ch R = 1 ,4002.*  ,199.6,199.6,199.6
Node Last Edited Time=Aug/06/2010 07:27:52
#Sta/Elev= 4 
       0       0       0   -11.2      12   -11.2      12       0
#Mann= 3 , 0 , 0 
       0     .02       0       0     .02       0      12     .02       0
#XS Lid=3
       0      20      -1       6      20       0      12      20      -1
XS Deck Add Preissmann Slot
Bank Sta=0,12
XS Rating Curve= 0 ,0
XS HTab Starting El and Incr=-11,1, 50 
XS HTab Horizontal Distribution= 5 , 5 , 5 
Minor Loss Coefficient=0.008
Exp/Cntr=0.3,0.1

Type RM Length L Ch R = 1 ,3802.4* ,199.6,199.6,199.6
Node Last Edited Time=Aug/06/2010 07:27:52
#Sta/Elev= 4 
       0       0       0  -11.24      12  -11.24      12       0
#Mann= 3 , 0 , 0 
       0     .02       0       0     .02       0      12     .02       0
#XS Lid=3
       0      20      -1       6      20       0      12      20      -1
XS Deck Add Preissmann Slot
Bank Sta=0,12
XS Rating Curve= 0 ,0
XS HTab Starting El and Incr=-11,1, 50 
XS HTab Horizontal Distribution= 5 , 5 , 5 
Minor Loss Coefficient=0.008
Exp/Cntr=0.3,0.1

Type RM Length L Ch R = 1 ,3602.8* ,199.6,199.6,199.6
Node Last Edited Time=Aug/06/2010 07:27:52
#Sta/Elev= 4 
       0       0       0  -11.28      12  -11.28      12       0
#Mann= 3 , 0 , 0 
       0     .02       0       0     .02       0      12     .02       0
#XS Lid=3
       0      20      -1       6      20       0      12      20      -1
XS Deck Add Preissmann Slot
Bank Sta=0,12
XS Rating Curve= 0 ,0
XS HTab Starting El and Incr=-11,1, 50 
XS HTab Horizontal Distribution= 5 , 5 , 5 
Minor Loss Coefficient=0.008
Exp/Cntr=0.3,0.1

Type RM Length L Ch R = 1 ,3403.2* ,199.6,199.6,199.6
Node Last Edited Time=Aug/06/2010 07:27:52
#Sta/Elev= 4 
       0       0       0  -11.32      12  -11.32      12       0
#Mann= 3 , 0 , 0 
       0     .02       0       0     .02       0      12     .02       0
#XS Lid=3
       0      20      -1       6      20       0      12      20      -1
XS Deck Add Preissmann Slot
Bank Sta=0,12
XS Rating Curve= 0 ,0
XS HTab Starting El and Incr=-11,1, 50 
XS HTab Horizontal Distribution= 5 , 5 , 5 
Minor Loss Coefficient=0.008
Exp/Cntr=0.3,0.1

Type RM Length L Ch R = 1 ,3203.6* ,199.6,199.6,199.6
Node Last Edited Time=Dec/08/2005 10:23:03
#Sta/Elev= 4 
       0       0       0  -11.36      12  -11.36      12       0
#Mann= 3 , 0 , 0 
       0     .02       0       0     .02       0      12     .02       0
#XS Lid=3
       0      20      -1       6      20       0      12      20      -1
XS Deck Add Preissmann Slot
Bank Sta=0,12
XS Rating Curve= 0 ,0
XS HTab Starting El and Incr=-11,1, 50 
XS HTab Horizontal Distribution= 5 , 5 , 5 
Exp/Cntr=0.3,0.1

Type RM Length L Ch R = 1 ,3004.*  ,199.6,199.6,199.6
Node Last Edited Time=Dec/08/2005 10:23:03
#Sta/Elev= 4 
       0       0       0   -11.4      12   -11.4      12       0
#Mann= 3 , 0 , 0 
       0     .02       0       0     .02       0      12     .02       0
#XS Lid=3
       0      20      -1       6      20       0      12      20      -1
XS Deck Add Preissmann Slot
Bank Sta=0,12
XS Rating Curve= 0 ,0
XS HTab Starting El and Incr=-11,1, 50 
XS HTab Horizontal Distribution= 5 , 5 , 5 
Exp/Cntr=0.3,0.1

Type RM Length L Ch R = 1 ,2804.4* ,199.6,199.6,199.6
Node Last Edited Time=Dec/08/2005 10:23:03
#Sta/Elev= 4 
       0       0       0  -11.44      12  -11.44      12       0
#Mann= 3 , 0 , 0 
       0     .02       0       0     .02       0      12     .02       0
#XS Lid=3
       0      20      -1       6      20       0      12      20      -1
XS Deck Add Preissmann Slot
Bank Sta=0,12
XS Rating Curve= 0 ,0
XS HTab Starting El and Incr=-11,1, 50 
XS HTab Horizontal Distribution= 5 , 5 , 5 
Exp/Cntr=0.3,0.1

Type RM Length L Ch R = 1 ,2604.8* ,199.6,199.6,199.6
Node Last Edited Time=Dec/08/2005 10:23:03
#Sta/Elev= 4 
       0       0       0  -11.48      12  -11.48      12       0
#Mann= 3 , 0 , 0 
       0     .02       0       0     .02       0      12     .02       0
#XS Lid=3
       0      20      -1       6      20       0      12      20      -1
XS Deck Add Preissmann Slot
Bank Sta=0,12
XS Rating Curve= 0 ,0
XS HTab Starting El and Incr=-11,1, 50 
XS HTab Horizontal Distribution= 5 , 5 , 5 
Exp/Cntr=0.3,0.1

Type RM Length L Ch R = 6 ,2600    ,,,
Node Last Edited Time=Nov/21/2005 10:15:52
Lateral Weir Pos= 3 
Lateral Weir End=                ,                ,        ,Carollton SA    
Lateral Weir Distance=4
Lateral Weir TW Multiple XS=0
Lateral Weir WD=10
Lateral Weir Coef=1
Lateral Weir WSCriteria=-1 
Lateral Weir Flap Gates= 0 
Lateral Weir Hagers EQN= 0 ,,,,,
Lateral Weir SS=0.05,0.05,
Lateral Weir Type= 0 
Lateral Weir Connection Pos and Dist= 0 ,
Lateral Weir SE= 2 
       0      14    2400      14
Lateral Weir Centerline= 0 
LW Culv=2,4,5,200,0.018,0.4,1,8,1,-4,-2, 2 ,Culvert #1  , 0 ,
     500     500    1500    1500
LW Culv Bottom n=0.018
LW Div RC= 0 ,False,

Type RM Length L Ch R = 1 ,2405.2* ,199.6,199.6,199.6
Node Last Edited Time=Dec/08/2005 10:23:03
#Sta/Elev= 4 
       0       0       0  -11.52      12  -11.52      12       0
#Mann= 3 , 0 , 0 
       0     .02       0       0     .02       0      12     .02       0
#XS Lid=3
       0      20      -1       6      20       0      12      20      -1
XS Deck Add Preissmann Slot
Bank Sta=0,12
XS Rating Curve= 0 ,0
XS HTab Starting El and Incr=-11,1, 50 
XS HTab Horizontal Distribution= 5 , 5 , 5 
Exp/Cntr=0.3,0.1

Type RM Length L Ch R = 1 ,2205.6* ,199.6,199.6,199.6
Node Last Edited Time=Dec/08/2005 10:23:03
#Sta/Elev= 4 
       0       0       0  -11.56      12  -11.56      12       0
#Mann= 3 , 0 , 0 
       0     .02       0       0     .02       0      12     .02       0
#XS Lid=3
       0      20      -1       6      20       0      12      20      -1
XS Deck Add Preissmann Slot
Bank Sta=0,12
XS Rating Curve= 0 ,0
XS HTab Starting El and Incr=-11,1, 50 
XS HTab Horizontal Distribution= 5 , 5 , 5 
Exp/Cntr=0.3,0.1

Type RM Length L Ch R = 1 ,2006.*  ,199.6,199.6,199.6
Node Last Edited Time=Dec/08/2005 10:23:03
#Sta/Elev= 4 
       0       0       0   -11.6      12   -11.6      12       0
#Mann= 3 , 0 , 0 
       0     .02       0       0     .02       0      12     .02       0
#XS Lid=3
       0      20      -1       6      20       0      12      20      -1
XS Deck Add Preissmann Slot
Bank Sta=0,12
XS Rating Curve= 0 ,0
XS HTab Starting El and Incr=-11,1, 50 
XS HTab Horizontal Distribution= 5 , 5 , 5 
Exp/Cntr=0.3,0.1

Type RM Length L Ch R = 1 ,1806.4* ,199.6,199.6,199.6
Node Last Edited Time=Dec/08/2005 10:23:03
#Sta/Elev= 4 
       0       0       0  -11.64      12  -11.64      12       0
#Mann= 3 , 0 , 0 
       0     .02       0       0     .02       0      12     .02       0
#XS Lid=3
       0      20      -1       6      20       0      12      20      -1
XS Deck Add Preissmann Slot
Bank Sta=0,12
XS Rating Curve= 0 ,0
XS HTab Starting El and Incr=-11,1, 50 
XS HTab Horizontal Distribution= 5 , 5 , 5 
Exp/Cntr=0.3,0.1

Type RM Length L Ch R = 1 ,1606.8* ,199.6,199.6,199.6
Node Last Edited Time=Dec/08/2005 10:23:03
#Sta/Elev= 4 
       0       0       0  -11.68      12  -11.68      12       0
#Mann= 3 , 0 , 0 
       0     .02       0       0     .02       0      12     .02       0
#XS Lid=3
       0      20      -1       6      20       0      12      20      -1
XS Deck Add Preissmann Slot
Bank Sta=0,12
XS Rating Curve= 0 ,0
XS HTab Starting El and Incr=-11,1, 50 
XS HTab Horizontal Distribution= 5 , 5 , 5 
Exp/Cntr=0.3,0.1

Type RM Length L Ch R = 1 ,1407.2* ,199.6,199.6,199.6
Node Last Edited Time=Dec/08/2005 10:23:03
#Sta/Elev= 4 
       0       0       0  -11.72      12  -11.72      12       0
#Mann= 3 , 0 , 0 
       0     .02       0       0     .02       0      12     .02       0
#XS Lid=3
       0      20      -1       6      20       0      12      20      -1
XS Deck Add Preissmann Slot
Bank Sta=0,12
XS Rating Curve= 0 ,0
XS HTab Starting El and Incr=-11,1, 50 
XS HTab Horizontal Distribution= 5 , 5 , 5 
Exp/Cntr=0.3,0.1

Type RM Length L Ch R = 1 ,1207.59*,199.6,199.6,199.6
Node Last Edited Time=Dec/08/2005 10:23:03
#Sta/Elev= 4 
       0       0       0  -11.76      12  -11.76      12       0
#Mann= 3 , 0 , 0 
       0     .02       0       0     .02       0      12     .02       0
#XS Lid=3
       0      20      -1       6      20       0      12      20      -1
XS Deck Add Preissmann Slot
Bank Sta=0,12
XS Rating Curve= 0 ,0
XS HTab Starting El and Incr=-11,1, 50 
XS HTab Horizontal Distribution= 5 , 5 , 5 
Exp/Cntr=0.3,0.1

Type RM Length L Ch R = 1 ,1007.99*,199.6,199.6,199.6
Node Last Edited Time=Dec/08/2005 10:23:03
#Sta/Elev= 4 
       0       0       0   -11.8      12   -11.8      12       0
#Mann= 3 , 0 , 0 
       0     .02       0       0     .02       0      12     .02       0
#XS Lid=3
       0      20      -1       6      20       0      12      20      -1
XS Deck Add Preissmann Slot
Bank Sta=0,12
XS Rating Curve= 0 ,0
XS HTab Starting El and Incr=-11,1, 50 
XS HTab Horizontal Distribution= 5 , 5 , 5 
Exp/Cntr=0.3,0.1

Type RM Length L Ch R = 1 ,808.399*,199.6,199.6,199.6
Node Last Edited Time=Dec/08/2005 10:23:03
#Sta/Elev= 4 
       0       0       0  -11.84      12  -11.84      12       0
#Mann= 3 , 0 , 0 
       0     .02       0       0     .02       0      12     .02       0
#XS Lid=3
       0      20      -1       6      20       0      12      20      -1
XS Deck Add Preissmann Slot
Bank Sta=0,12
XS Rating Curve= 0 ,0
XS HTab Starting El and Incr=-11,1, 50 
XS HTab Horizontal Distribution= 5 , 5 , 5 
Exp/Cntr=0.3,0.1

Type RM Length L Ch R = 1 ,608.799*,199.6,199.6,199.6
Node Last Edited Time=Dec/08/2005 10:23:03
#Sta/Elev= 4 
       0       0       0  -11.88      12  -11.88      12       0
#Mann= 3 , 0 , 0 
       0     .02       0       0     .02       0      12     .02       0
#XS Lid=3
       0      20      -1       6      20       0      12      20      -1
XS Deck Add Preissmann Slot
Bank Sta=0,12
XS Rating Curve= 0 ,0
XS HTab Starting El and Incr=-11,1, 50 
XS HTab Horizontal Distribution= 5 , 5 , 5 
Exp/Cntr=0.3,0.1

Type RM Length L Ch R = 1 ,409.199*,199.6,199.6,199.6
Node Last Edited Time=Dec/08/2005 10:23:03
#Sta/Elev= 4 
       0       0       0  -11.92      12  -11.92      12       0
#Mann= 3 , 0 , 0 
       0     .02       0       0     .02       0      12     .02       0
#XS Lid=3
       0      20      -1       6      20       0      12      20      -1
XS Deck Add Preissmann Slot
Bank Sta=0,12
XS Rating Curve= 0 ,0
XS HTab Starting El and Incr=-11,1, 50 
XS HTab Horizontal Distribution= 5 , 5 , 5 
Exp/Cntr=0.3,0.1

Type RM Length L Ch R = 1 ,209.599*,199.6,199.6,199.6
Node Last Edited Time=Dec/08/2005 10:23:03
#Sta/Elev= 4 
       0       0       0  -11.96      12  -11.96      12       0
#Mann= 3 , 0 , 0 
       0     .02       0       0     .02       0      12     .02       0
#XS Lid=3
       0      20      -1       6      20       0      12      20      -1
XS Deck Add Preissmann Slot
Bank Sta=0,12
XS Rating Curve= 0 ,0
XS HTab Starting El and Incr=-11,1, 50 
XS HTab Horizontal Distribution= 5 , 5 , 5 
Exp/Cntr=0.3,0.1

Type RM Length L Ch R = 1 ,10      ,10,10,10
Node Last Edited Time=Dec/08/2005 10:23:03
#Sta/Elev= 4 
       0       0       0     -12      12     -12      12       0
#Mann= 3 , 0 , 0 
       0     .03       0       0     .02       0      12     .03       0
#XS Lid=3
       0      20      -1       6      20       0      12      20      -1
XS Deck Add Preissmann Slot
Bank Sta=0,12
XS Rating Curve= 0 ,0
XS HTab Starting El and Incr=-11,1, 50 
XS HTab Horizontal Distribution= 5 , 5 , 5 
Exp/Cntr=0.3,0.1

River Reach=Claiborne       ,2               
Reach XY= 2 
       0.0714778       0.0218894       0.0841506       0.1970046
Rch Text X Y=0.074646,0.0656682
Reverse River Text= 0 

Type RM Length L Ch R = 1 ,4000    ,199,199,199
Node Last Edited Time=Dec/08/2005 10:23:03
#Sta/Elev= 4 
       0       0       0     -10      13     -10      13       0
#Mann= 3 , 0 , 0 
       0     .03       0       0     .02       0      13     .03       0
#XS Lid=3
       0      20      -1     7.5      20       0      13      20      -1
XS Deck Add Preissmann Slot
Bank Sta=0,13
XS Rating Curve= 0 ,0
XS HTab Starting El and Incr=-9.9,0.47, 50 
XS HTab Horizontal Distribution= 5 , 5 , 5 
Exp/Cntr=0.3,0.1

Type RM Length L Ch R = 1 ,3801.*  ,199,199,199
Node Last Edited Time=Dec/08/2005 10:23:03
#Sta/Elev= 4 
       0       0       0   -10.1      13   -10.1      13       0
#Mann= 3 , 0 , 0 
       0     .02       0       0     .02       0      13     .02       0
#XS Lid=3
       0      20      -1     7.5      20       0      13      20      -1
XS Deck Add Preissmann Slot
Bank Sta=0,13
XS Rating Curve= 0 ,0
XS HTab Starting El and Incr=-10,0.48, 50 
XS HTab Horizontal Distribution= 5 , 5 , 5 
Exp/Cntr=0.3,0.1

Type RM Length L Ch R = 1 ,3602.*  ,199,199,199
Node Last Edited Time=Dec/08/2005 10:23:03
#Sta/Elev= 4 
       0       0       0   -10.2      13   -10.2      13       0
#Mann= 3 , 0 , 0 
       0     .02       0       0     .02       0      13     .02       0
#XS Lid=3
       0      20      -1     7.5      20       0      13      20      -1
XS Deck Add Preissmann Slot
Bank Sta=0,13
XS Rating Curve= 0 ,0
XS HTab Starting El and Incr=-10.1,0.48, 50 
XS HTab Horizontal Distribution= 5 , 5 , 5 
Exp/Cntr=0.3,0.1

Type RM Length L Ch R = 6 ,3600    ,,,
Node Last Edited Time=Aug/02/2010 13:56:55
Lateral Weir Pos= 0 
Lateral Weir End=                ,                ,        ,St Charles SA   
Lateral Weir Distance=2
Lateral Weir TW Multiple XS=0
Lateral Weir WD=10
Lateral Weir Coef=2
Lateral Weir WSCriteria=-1 
Lateral Weir Flap Gates= 0 
Lateral Weir Hagers EQN= 0 ,,,,,
Lateral Weir SS=0.05,0.05,
Lateral Weir Type= 0 
Lateral Weir Connection Pos and Dist= 0 ,
Lateral Weir SE= 2 
       0      14    1200      14
Lateral Weir Centerline= 0 
LW Culv=2,5,5,200,0.018,0.4,1,8,1,-5,-2, 3 ,Culvert #1  , 0 ,
     200     200     300     300    1000    1000
LW Culv Bottom n=0.018
LW Div RC= 0 ,False,

Type RM Length L Ch R = 1 ,3403.*  ,199,199,199
Node Last Edited Time=Dec/08/2005 10:23:03
#Sta/Elev= 4 
       0       0       0   -10.3      13   -10.3      13       0
#Mann= 3 , 0 , 0 
       0     .02       0       0     .02       0      13     .02       0
#XS Lid=3
       0      20      -1     7.5      20       0      13      20      -1
XS Deck Add Preissmann Slot
Bank Sta=0,13
XS Rating Curve= 0 ,0
XS HTab Starting El and Incr=-10.2,0.49, 50 
XS HTab Horizontal Distribution= 5 , 5 , 5 
Exp/Cntr=0.3,0.1

Type RM Length L Ch R = 6 ,3400    ,,,
Node Last Edited Time=Nov/21/2005 09:01:22
Lateral Weir Pos= 3 
Lateral Weir End=                ,                ,        ,Claiborne SA    
Lateral Weir Distance=2
Lateral Weir TW Multiple XS=0
Lateral Weir WD=10
Lateral Weir Coef=2
Lateral Weir WSCriteria=-1 
Lateral Weir Flap Gates= 0 
Lateral Weir Hagers EQN= 0 ,,,,,
Lateral Weir SS=0.05,0.05,
Lateral Weir Type= 0 
Lateral Weir Connection Pos and Dist= 0 ,
Lateral Weir SE= 2 
       0      14    1200      14
Lateral Weir Centerline= 0 
LW Culv=2,4,4,200,0.018,0.4,1,8,1,-4,-2, 3 ,Culvert #1  , 0 ,
     200     200     800     800    1000    1000
LW Culv Bottom n=0.018
LW Div RC= 0 ,False,

Type RM Length L Ch R = 1 ,3204.*  ,199,199,199
Node Last Edited Time=Dec/08/2005 10:23:03
#Sta/Elev= 4 
       0       0       0   -10.4      13   -10.4      13       0
#Mann= 3 , 0 , 0 
       0     .02       0       0     .02       0      13     .02       0
#XS Lid=3
       0      20      -1     7.5      20       0      13      20      -1
XS Deck Add Preissmann Slot
Bank Sta=0,13
XS Rating Curve= 0 ,0
XS HTab Starting El and Incr=-10.3,0.49, 50 
XS HTab Horizontal Distribution= 5 , 5 , 5 
Exp/Cntr=0.3,0.1

Type RM Length L Ch R = 1 ,3005.*  ,199,199,199
Node Last Edited Time=Dec/08/2005 10:23:03
#Sta/Elev= 4 
       0       0       0   -10.5      13   -10.5      13       0
#Mann= 3 , 0 , 0 
       0     .02       0       0     .02       0      13     .02       0
#XS Lid=3
       0      20      -1     7.5      20       0      13      20      -1
XS Deck Add Preissmann Slot
Bank Sta=0,13
XS Rating Curve= 0 ,0
XS HTab Starting El and Incr=-10.4,0.5, 50 
XS HTab Horizontal Distribution= 5 , 5 , 5 
Exp/Cntr=0.3,0.1

Type RM Length L Ch R = 1 ,2806.*  ,199,199,199
Node Last Edited Time=Dec/08/2005 10:23:03
#Sta/Elev= 4 
       0       0       0   -10.6      13   -10.6      13       0
#Mann= 3 , 0 , 0 
       0     .02       0       0     .02       0      13     .02       0
#XS Lid=3
       0      20      -1     7.5      20       0      13      20      -1
XS Deck Add Preissmann Slot
Bank Sta=0,13
XS Rating Curve= 0 ,0
XS HTab Starting El and Incr=-10.5,0.5, 50 
XS HTab Horizontal Distribution= 5 , 5 , 5 
Exp/Cntr=0.3,0.1

Type RM Length L Ch R = 1 ,2607.*  ,199,199,199
Node Last Edited Time=Dec/08/2005 10:23:03
#Sta/Elev= 4 
       0       0       0   -10.7      13   -10.7      13       0
#Mann= 3 , 0 , 0 
       0     .02       0       0     .02       0      13     .02       0
#XS Lid=3
       0      20      -1     7.5      20       0      13      20      -1
XS Deck Add Preissmann Slot
Bank Sta=0,13
XS Rating Curve= 0 ,0
XS HTab Starting El and Incr=-10.6,0.51, 50 
XS HTab Horizontal Distribution= 5 , 5 , 5 
Exp/Cntr=0.3,0.1

Type RM Length L Ch R = 1 ,2408.*  ,199,199,199
Node Last Edited Time=Dec/08/2005 10:23:03
#Sta/Elev= 4 
       0       0       0   -10.8      13   -10.8      13       0
#Mann= 3 , 0 , 0 
       0     .02       0       0     .02       0      13     .02       0
#XS Lid=3
       0      20      -1     7.5      20       0      13      20      -1
XS Deck Add Preissmann Slot
Bank Sta=0,13
XS Rating Curve= 0 ,0
XS HTab Starting El and Incr=-10.7,0.51, 50 
XS HTab Horizontal Distribution= 5 , 5 , 5 
Exp/Cntr=0.3,0.1

Type RM Length L Ch R = 1 ,2209.*  ,199,199,199
Node Last Edited Time=Dec/08/2005 10:23:03
#Sta/Elev= 4 
       0       0       0   -10.9      13   -10.9      13       0
#Mann= 3 , 0 , 0 
       0     .02       0       0     .02       0      13     .02       0
#XS Lid=3
       0      20      -1     7.5      20       0      13      20      -1
XS Deck Add Preissmann Slot
Bank Sta=0,13
XS Rating Curve= 0 ,0
XS HTab Starting El and Incr=-10.8,0.52, 50 
XS HTab Horizontal Distribution= 5 , 5 , 5 
Exp/Cntr=0.3,0.1

Type RM Length L Ch R = 1 ,2010    ,10,10,10
Node Last Edited Time=Dec/08/2005 10:23:03
#Sta/Elev= 4 
       0       0       0     -11      13     -11      13       0
#Mann= 3 , 0 , 0 
       0     .03       0       0     .02       0      13     .03       0
#XS Lid=3
       0      20      -1     7.5      20       0      13      20      -1
XS Deck Add Preissmann Slot
Bank Sta=0,13
XS Rating Curve= 0 ,0
XS HTab Starting El and Incr=-10.9,0.52, 50 
XS HTab Horizontal Distribution= 5 , 5 , 5 
Exp/Cntr=0.3,0.1

River Reach=ClaiTo17th      ,1               
Reach XY= 3 
       0.0841506       0.1970046       0.0737819       0.2004608
       0.0342443       0.3028521
Rch Text X Y=0.0716913,0.2235023
Reverse River Text= 0 

Type RM Length L Ch R = 1 ,2000    ,199,199,199
Node Last Edited Time=Aug/06/2010 07:27:52
#Sta/Elev= 4 
       0       0       0     -11       8     -11       8       0
#Mann= 3 , 0 , 0 
       0     .03       0       0     .02       0       8     .03       0
#XS Lid=3
       0      20      -1       4      20       0       8      20      -1
XS Deck Add Preissmann Slot
Bank Sta=0,8
XS Rating Curve= 0 ,0
XS HTab Starting El and Incr=-11,1, 50 
XS HTab Horizontal Distribution= 5 , 5 , 5 
Minor Loss Coefficient=0.005
Exp/Cntr=0.3,0.1

Type RM Length L Ch R = 1 ,1801.*  ,199,199,199
Node Last Edited Time=Aug/06/2010 07:27:52
#Sta/Elev= 4 
       0       0       0   -11.1       8   -11.1       8       0
#Mann= 3 , 0 , 0 
       0     .02       0       0     .02       0       8     .02       0
#XS Lid=3
       0      20      -1       4      20       0       8      20      -1
XS Deck Add Preissmann Slot
Bank Sta=0,8
XS Rating Curve= 0 ,0
XS HTab Starting El and Incr=-11,1, 50 
XS HTab Horizontal Distribution= 5 , 5 , 5 
Minor Loss Coefficient=0.005
Exp/Cntr=0.3,0.1

Type RM Length L Ch R = 1 ,1602.*  ,199,199,199
Node Last Edited Time=Dec/08/2005 10:23:03
#Sta/Elev= 4 
       0       0       0   -11.2       8   -11.2       8       0
#Mann= 3 , 0 , 0 
       0     .02       0       0     .02       0       8     .02       0
#XS Lid=3
       0      20      -1       4      20       0       8      20      -1
XS Deck Add Preissmann Slot
Bank Sta=0,8
XS Rating Curve= 0 ,0
XS HTab Starting El and Incr=-11,1, 50 
XS HTab Horizontal Distribution= 5 , 5 , 5 
Exp/Cntr=0.3,0.1

Type RM Length L Ch R = 1 ,1403.*  ,199,199,199
Node Last Edited Time=Dec/08/2005 10:23:03
#Sta/Elev= 4 
       0       0       0   -11.3       8   -11.3       8       0
#Mann= 3 , 0 , 0 
       0     .02       0       0     .02       0       8     .02       0
#XS Lid=3
       0      20      -1       4      20       0       8      20      -1
XS Deck Add Preissmann Slot
Bank Sta=0,8
XS Rating Curve= 0 ,0
XS HTab Starting El and Incr=-11,1, 50 
XS HTab Horizontal Distribution= 5 , 5 , 5 
Exp/Cntr=0.3,0.1

Type RM Length L Ch R = 1 ,1204.*  ,199,199,199
Node Last Edited Time=Dec/08/2005 10:23:03
#Sta/Elev= 4 
       0       0       0   -11.4       8   -11.4       8       0
#Mann= 3 , 0 , 0 
       0     .02       0       0     .02       0       8     .02       0
#XS Lid=3
       0      20      -1       4      20       0       8      20      -1
XS Deck Add Preissmann Slot
Bank Sta=0,8
XS Rating Curve= 0 ,0
XS HTab Starting El and Incr=-11,1, 50 
XS HTab Horizontal Distribution= 5 , 5 , 5 
Exp/Cntr=0.3,0.1

Type RM Length L Ch R = 1 ,1005.*  ,199,199,199
Node Last Edited Time=Dec/08/2005 10:23:03
#Sta/Elev= 4 
       0       0       0   -11.5       8   -11.5       8       0
#Mann= 3 , 0 , 0 
       0     .02       0       0     .02       0       8     .02       0
#XS Lid=3
       0      20      -1       4      20       0       8      20      -1
XS Deck Add Preissmann Slot
Bank Sta=0,8
XS Rating Curve= 0 ,0
XS HTab Starting El and Incr=-11,1, 50 
XS HTab Horizontal Distribution= 5 , 5 , 5 
Exp/Cntr=0.3,0.1

Type RM Length L Ch R = 1 ,805.999*,199,199,199
Node Last Edited Time=Dec/08/2005 10:23:03
#Sta/Elev= 4 
       0       0       0   -11.6       8   -11.6       8       0
#Mann= 3 , 0 , 0 
       0     .02       0       0     .02       0       8     .02       0
#XS Lid=3
       0      20      -1       4      20       0       8      20      -1
XS Deck Add Preissmann Slot
Bank Sta=0,8
XS Rating Curve= 0 ,0
XS HTab Starting El and Incr=-11,1, 50 
XS HTab Horizontal Distribution= 5 , 5 , 5 
Exp/Cntr=0.3,0.1

Type RM Length L Ch R = 1 ,607.*   ,199,199,199
Node Last Edited Time=Dec/08/2005 10:23:03
#Sta/Elev= 4 
       0       0       0   -11.7       8   -11.7       8       0
#Mann= 3 , 0 , 0 
       0     .02       0       0     .02       0       8     .02       0
#XS Lid=3
       0      20      -1       4      20       0       8      20      -1
XS Deck Add Preissmann Slot
Bank Sta=0,8
XS Rating Curve= 0 ,0
XS HTab Starting El and Incr=-11,1, 50 
XS HTab Horizontal Distribution= 5 , 5 , 5 
Exp/Cntr=0.3,0.1

Type RM Length L Ch R = 1 ,408.*   ,199,199,199
Node Last Edited Time=Dec/08/2005 10:23:03
#Sta/Elev= 4 
       0       0       0   -11.8       8   -11.8       8       0
#Mann= 3 , 0 , 0 
       0     .02       0       0     .02       0       8     .02       0
#XS Lid=3
       0      20      -1       4      20       0       8      20      -1
XS Deck Add Preissmann Slot
Bank Sta=0,8
XS Rating Curve= 0 ,0
XS HTab Starting El and Incr=-11,1, 50 
XS HTab Horizontal Distribution= 5 , 5 , 5 
Exp/Cntr=0.3,0.1

Type RM Length L Ch R = 1 ,209.*   ,199,199,199
Node Last Edited Time=Dec/08/2005 10:23:03
#Sta/Elev= 4 
       0       0       0   -11.9       8   -11.9       8       0
#Mann= 3 , 0 , 0 
       0     .02       0       0     .02       0       8     .02       0
#XS Lid=3
       0      20      -1       4      20       0       8      20      -1
XS Deck Add Preissmann Slot
Bank Sta=0,8
XS Rating Curve= 0 ,0
XS HTab Starting El and Incr=-11,1, 50 
XS HTab Horizontal Distribution= 5 , 5 , 5 
Exp/Cntr=0.3,0.1

Type RM Length L Ch R = 1 ,10      ,10,10,10
Node Last Edited Time=Dec/08/2005 10:23:03
#Sta/Elev= 4 
       0       0       0     -12       8     -12       8       0
#Mann= 3 , 0 , 0 
       0     .03       0       0     .02       0       8     .03       0
#XS Lid=3
       0      20      -1       4      20       0       8      20      -1
XS Deck Add Preissmann Slot
Bank Sta=0,8
XS Rating Curve= 0 ,0