Flow Title=Katrina Event
Program Version=5.00
Use Restart= 0 
Initial Flow Loc=17th Street     ,3               ,36020   ,75
Initial Flow Loc=17th Street     ,2               ,26000   ,250
Initial Flow Loc=Audubon         ,1               ,5000    ,50
Initial Flow Loc=Claiborne       ,2               ,4000    ,50
Initial Flow Loc=Claiborne       ,1               ,2000    ,25
Initial Flow Loc=ClaiTo17th      ,1               ,2000    ,25
Initial Flow Loc=Napoleon        ,2               ,4000    ,50
Initial Flow Loc=Napoleon        ,1               ,1000    ,75
Initial Flow Loc=Wash-Orleans    ,1               ,5000    ,50
Initial Flow Loc=Washington      ,2               ,20000   ,50
Initial Flow Loc=Washington      ,1               ,10000   ,175
Initial Storage Elev=Carollton SA    ,-2
Initial Storage Elev=Claiborne SA    ,-2
Initial Storage Elev=Earhart SA      ,-4
Initial Storage Elev=Harrison SA     ,-6
Initial Storage Elev=Louisiana SA    ,-2
Initial Storage Elev=Metaire SA      ,-4
Initial Storage Elev=Podras SA       ,-2
Initial Storage Elev=St Charles SA   ,-2
Initial RRR Elev=17th Street     ,2               ,21200   ,-4
Boundary Location=17th Street     ,2               ,21150   ,        ,                ,                ,                ,                
Gate Name=Gate #1     
Gate DSS Path=
Gate Use DSS=False
Gate Time Interval=1HOUR
Gate Use Fixed Start Time=False
Gate Fixed Start Date/Time=,
Gate Openings= 400 
      .1      .1      .1      .1      .1      .1      .1      .1      .1      .1
      .1      .1      .1      .1      .1      .1      .1      .1      .1      .1
      .1      .1      .1      .1      .1      .1      .1      .1      .1      .1
      .1      .1      .1      .1      .1      .1      .1      .1      .1      .1
      .1      .1      .1      .1      .1      .1      .1      .1      .1      .1
      .1      .1      .1      .1      .1      .1      .1      .1      .1      .1
      .1      .1      .1      .1      .1      .1      .1      .1      .1      .1
      .1      .1      .1      .1      .1      .1      .1      .1      .1      .1
      .1      .1      .1      .1      .1      .1      .1      .1      .1      .1
      .1      .1      .1      .1      .1      .1      .1      .1      .1      .1
      .1      .1      .1      .1      .1      .1      .1      .1      .1      .1
      .1      .1      .1      .1      .1      .1      .1      .1      .1      .1
      .1      .1      .1      .1      .1      .1      .1      .1      .1      .1
      .1      .1      .1      .1      .1      .1      .1      .1      .1      .1
      .1      .1      .1      .1      .1      .1      .1      .1      .1      .1
      .1      .1      .1      .1      .1      .1      .1      .1      .1      .1
      .1      .1      .1      .1      .1      .1      .1      .1      .1      .1
      .1      .1      .1      .1      .1      .1      .1      .1      .1      .1
      .1      .1      .1      .1      .1      .1      .1      .1      .1      .1
      .1      .1      .1      .1      .1      .1      .1      .1      .1      .1
      .1      .1      .1      .1      .1      .1      .1      .1      .1      .1
      .1      .1      .1      .1      .1      .1      .1      .1      .1      .1
      .1      .1      .1      .1      .1      .1      .1      .1      .1      .1
      .1      .1      .1      .1      .1      .1      .1      .1      .1      .1
      .1      .1      .1      .1      .1      .1      .1      .1      .1      .1
      .1      .1      .1      .1      .1      .1      .1      .1      .1      .1
      .1      .1      .1      .1      .1      .1      .1      .1      .1      .1
      .1      .1      .1      .1      .1      .1      .1      .1      .1      .1
      .1      .1      .1      .1      .1      .1      .1      .1      .1      .1
      .1      .1      .1      .1      .1      .1      .1      .1      .1      .1
      .1      .1      .1      .1      .1      .1      .1      .1      .1      .1
      .1      .1      .1      .1      .1      .1      .1      .1      .1      .1
      .1      .1      .1      .1      .1      .1      .1      .1      .1      .1
      .1      .1      .1      .1      .1      .1      .1      .1      .1      .1
      .1      .1      .1      .1      .1      .1      .1      .1      .1      .1
      .1      .1      .1      .1      .1      .1      .1      .1      .1      .1
      .1      .1      .1      .1      .1      .1      .1      .1      .1      .1
      .1      .1      .1      .1      .1      .1      .1      .1      .1      .1
      .1      .1      .1      .1      .1      .1      .1      .1      .1      .1
      .1      .1      .1      .1      .1      .1      .1      .1      .1      .1
Boundary Location=17th Street     ,2               ,-1000   ,        ,                ,                ,                ,                
Interval=1HOUR
Stage Hydrograph= 400 
       2    2.04    2.08    2.13    2.17    2.21    2.25    2.29    2.33    2.38
    2.42    2.46     2.5    2.54    2.58    2.63    2.67    2.71    2.75    2.79
    2.83    2.88    2.92    2.96       3     3.1     3.2     3.5     3.8     4.1
    5.05       6     8.3    10.6    11.7    10.7     9.7    8.35       7    6.57
    6.13     5.7     5.7     5.7     5.7    5.65     5.6     5.6     5.6    5.53
    5.47     5.4    5.33    5.27     5.2    5.13    5.07       5    4.93    4.87
     4.8    4.73    4.67     4.6    4.53    4.47     4.4    4.33    4.27     4.2
    4.13    4.07       4    3.94    3.88    3.81    3.75    3.69    3.63    3.56
     3.5    3.44    3.38    3.31    3.25    3.19    3.13    3.06       3    2.94
    2.88    2.81    2.75    2.69    2.63    2.56     2.5    2.46    2.42    2.38
    2.33    2.29    2.25    2.21    2.17    2.13    2.08    2.04       2    1.96
    1.92    1.88    1.83    1.79    1.75    1.71    1.67    1.63    1.58    1.54
     1.5     1.5     1.5     1.5     1.5     1.5     1.5     1.5     1.5     1.5
     1.5     1.5     1.5     1.5     1.5     1.5     1.5     1.5     1.5     1.5
     1.5     1.5     1.5     1.5     1.5     1.5     1.5     1.5     1.5     1.5
     1.5     1.5     1.5     1.5     1.5     1.5     1.5     1.5     1.5     1.5
     1.5     1.5     1.5     1.5     1.5     1.5     1.5     1.5     1.5     1.5
     1.5     1.5     1.5     1.5     1.5     1.5     1.5     1.5     1.5     1.5
     1.5     1.5     1.5     1.5     1.5     1.5     1.5     1.5     1.5     1.5
     1.5     1.5     1.5     1.5     1.5     1.5     1.5     1.5     1.5     1.5
     1.5     1.5     1.5     1.5     1.5     1.5     1.5     1.5     1.5     1.5
     1.5     1.5     1.5     1.5     1.5     1.5     1.5     1.5     1.5     1.5
     1.5     1.5     1.5     1.5     1.5     1.5     1.5     1.5     1.5     1.5
     1.5     1.5     1.5     1.5     1.5     1.5     1.5     1.5     1.5     1.5
     1.5     1.5     1.5     1.5     1.5     1.5     1.5     1.5     1.5     1.5
     1.5     1.5     1.5     1.5     1.5     1.5     1.5     1.5     1.5     1.5
     1.5     1.5     1.5     1.5     1.5     1.5     1.5     1.5     1.5     1.5
     1.5     1.5     1.5     1.5     1.5     1.5     1.5     1.5     1.5     1.5
     1.5     1.5     1.5     1.5     1.5     1.5     1.5     1.5     1.5     1.5
     1.5     1.5     1.5     1.5     1.5     1.5     1.5     1.5     1.5     1.5
     1.5     1.5     1.5     1.5     1.5     1.5     1.5     1.5     1.5     1.5
     1.5     1.5     1.5     1.5     1.5     1.5     1.5     1.5     1.5     1.5
     1.5     1.5     1.5     1.5     1.5     1.5     1.5     1.5     1.5     1.5
     1.5     1.5     1.5     1.5     1.5     1.5     1.5     1.5     1.5     1.5
     1.5     1.5     1.5     1.5     1.5     1.5     1.5     1.5     1.5     1.5
     1.5     1.5     1.5     1.5     1.5     1.5     1.5     1.5     1.5     1.5
     1.5     1.5     1.5     1.5     1.5     1.5     1.5     1.5     1.5     1.5
     1.5     1.5     1.5     1.5     1.5     1.5     1.5     1.5     1.5     1.5
     1.5     1.5     1.5     1.5     1.5     1.5     1.5     1.5     1.5     1.5
     1.5     1.5     1.5     1.5     1.5     1.5     1.5     1.5     1.5     1.5
DSS Path=
Use DSS=False
Use Fixed Start Time=False
Fixed Start Date/Time=28aug2005,0000
Is Critical Boundary=False
Critical Boundary Flow=
Boundary Location=Audubon         ,1               ,5000    ,        ,                ,                ,                ,                
Interval=1HOUR
Flow Hydrograph= 400 
      50      50      50      50      50      50      50      50      50      50
      50      50      50      50      50      50      50      50      50      50
      50      50      50      50      50      50      50      50      50      50
      50      50      50      50      50      50      50      50      50      50
      50      50      50      50      50      50      50      50      50      50
      50      50      50      50      50      50      50      50      50      50
      50      50      50      50      50      50      50      50      50      50
      50      50      50      50      50      50      50      50      50      50
      50      50      50      50      50      50      50      50      50      50
      50      50      50      50      50      50      50      50      50      50
      50      50      50      50      50      50      50      50      50      50
      50      50      50      50      50      50      50      50      50      50
      50      50      50      50      50      50      50      50      50      50
      50      50      50      50      50      50      50      50      50      50
      50      50      50      50      50      50      50      50      50      50
      50      50      50      50      50      50      50      50      50      50
      50      50      50      50      50      50      50      50      50      50
      50      50      50      50      50      50      50      50      50      50
      50      50      50      50      50      50      50      50      50      50
      50      50      50      50      50      50      50      50      50      50
      50      50      50      50      50      50      50      50      50      50
      50      50      50      50      50      50      50      50      50      50
      50      50      50      50      50      50      50      50      50      50
      50      50      50      50      50      50      50      50      50      50
      50      50      50      50      50      50      50      50      50      50
      50      50      50      50      50      50      50      50      50      50
      50      50      50      50      50      50      50      50      50      50
      50      50      50      50      50      50      50      50      50      50
      50      50      50      50      50      50      50      50      50      50
      50      50      50      50      50      50      50      50      50      50
      50      50      50      50      50      50      50      50      50      50
      50      50      50      50      50      50      50      50      50      50
      50      50      50      50      50      50      50      50      50      50
      50      50      50      50      50      50      50      50      50      50
      50      50      50      50      50      50      50      50      50      50
      50      50      50      50      50      50      50      50      50      50
      50      50      50      50      50      50      50      50      50      50
      50      50      50      50      50      50      50      50      50      50
      50      50      50      50      50      50      50      50      50      50
      50      50      50      50      50      50      50      50      50      50
DSS Path=
Use DSS=False
Use Fixed Start Time=False
Fixed Start Date/Time=,
Is Critical Boundary=False
Critical Boundary Flow=
Boundary Location=Claiborne       ,2               ,4000    ,        ,                ,                ,                ,                
Interval=1HOUR
Flow Hydrograph= 400 
      50      50      50      50      50      50      50      50      50      50
      50      50      50      50      50      50      50      50      50      50
      50      50      50      50      50      50      50      50      50      50
      50      50      50      50      50      50      50      50      50      50
      50      50      50      50      50      50      50      50      50      50
      50      50      50      50      50      50      50      50      50      50
      50      50      50      50      50      50      50      50      50      50
      50      50      50      50      50      50      50      50      50      50
      50      50      50      50      50      50      50      50      50      50
      50      50      50      50      50      50      50      50      50      50
      50      50      50      50      50      50      50      50      50      50
      50      50      50      50      50      50      50      50      50      50
      50      50      50      50      50      50      50      50      50      50
      50      50      50      50      50      50      50      50      50      50
      50      50      50      50      50      50      50      50      50      50
      50      50      50      50      50      50      50      50      50      50
      50      50      50      50      50      50      50      50      50      50
      50      50      50      50      50      50      50      50      50      50
      50      50      50      50      50      50      50      50      50      50
      50      50      50      50      50      50      50      50      50      50
      50      50      50      50      50      50      50      50      50      50
      50      50      50      50      50      50      50      50      50      50
      50      50      50      50      50      50      50      50      50      50
      50      50      50      50      50      50      50      50      50      50
      50      50      50      50      50      50      50      50      50      50
      50      50      50      50      50      50      50      50      50      50
      50      50      50      50      50      50      50      50      50      50
      50      50      50      50      50      50      50      50      50      50
      50      50      50      50      50      50      50      50      50      50
      50      50      50      50      50      50      50      50      50      50
      50      50      50      50      50      50      50      50      50      50
      50      50      50      50      50      50      50      50      50      50
      50      50      50      50      50      50      50      50      50      50
      50      50      50      50      50      50      50      50      50      50
      50      50      50      50      50      50      50      50      50      50
      50      50      50      50      50      50      50      50      50      50
      50      50      50      50      50      50      50      50      50      50
      50      50      50      50      50      50      50      50      50      50
      50      50      50      50      50      50      50      50      50      50
      50      50      50      50      50      50      50      50      50      50
DSS Path=
Use DSS=False
Use Fixed Start Time=False
Fixed Start Date/Time=,
Is Critical Boundary=False
Critical Boundary Flow=
Boundary Location=Napoleon        ,2               ,4000    ,        ,                ,                ,                ,                
Interval=1HOUR
Flow Hydrograph= 400 
      50      50      50      50      50      50      50      50      50      50
      50      50      50      50      50      50      50      50      50      50
      50      50      50      50      50      50      50      50      50      50
      50      50      50      50      50      50      50      50      50      50
      50      50      50      50      50      50      50      50      50      50
      50      50      50      50      50      50      50      50      50      50
      50      50      50      50      50      50      50      50      50      50
      50      50      50      50      50      50      50      50      50      50
      50      50      50      50      50      50      50      50      50      50
      50      50      50      50      50      50      50      50      50      50
      50      50      50      50      50      50      50      50      50      50
      50      50      50      50      50      50      50      50      50      50
      50      50      50      50      50      50      50      50      50      50
      50      50      50      50      50      50      50      50      50      50
      50      50      50      50      50      50      50      50      50      50
      50      50      50      50      50      50      50      50      50      50
      50      50      50      50      50      50      50      50      50      50
      50      50      50      50      50      50      50      50      50      50
      50      50      50      50      50      50      50      50      50      50
      50      50      50      50      50      50      50      50      50      50
      50      50      50      50      50      50      50      50      50      50
      50      50      50      50      50      50      50      50      50      50
      50      50      50      50      50      50      50      50      50      50
      50      50      50      50      50      50      50      50      50      50
      50      50      50      50      50      50      50      50      50      50
      50      50      50      50      50      50      50      50      50      50
      50      50      50      50      50      50      50      50      50      50
      50      50      50      50      50      50      50      50      50      50
      50      50      50      50      50      50      50      50      50      50
      50      50      50      50      50      50      50      50      50      50
      50      50      50      50      50      50      50      50      50      50
      50      50      50      50      50      50      50      50      50      50
      50      50      50      50      50      50      50      50      50      50
      50      50      50      50      50      50      50      50      50      50
      50      50      50      50      50      50      50      50      50      50
      50      50      50      50      50      50      50      50      50      50
      50      50      50      50      50      50      50      50      50      50
      50      50      50      50      50      50      50      50      50      50
      50      50      50      50      50      50      50      50      50      50
      50      50      50      50      50      50      50      50      50      50
DSS Path=
Use DSS=False
Use Fixed Start Time=False
Fixed Start Date/Time=,
Is Critical Boundary=False
Critical Boundary Flow=
Boundary Location=Wash-Orleans    ,1               ,5000    ,        ,                ,                ,                ,                
Interval=1HOUR
Flow Hydrograph= 400 
      50      50      50      50      50      50      50      50      50      50
      50      50      50      50      50      50      50      50      50      50
      50      50      50      50      50      50      50      50      50      50
      50      50      50      50      50      50      50      50      50      50
      50      50      50      50      50      50      50      50      50      50
      50      50      50      50      50      50      50      50      50      50
      50      50      50      50      50      50      50      50      50      50
      50      50      50      50      50      50      50      50      50      50
      50      50      50      50      50      50      50      50      50      50
      50      50      50      50      50      50      50      50      50      50
      50      50      50      50      50      50      50      50      50      50
      50      50      50      50      50      50      50      50      50      50
      50      50      50      50      50      50      50      50      50      50
      50      50      50      50      50      50      50      50      50      50
      50      50      50      50      50      50      50      50      50      50
      50      50      50      50      50      50      50      50      50      50
      50      50      50      50      50      50      50      50      50      50
      50      50      50      50      50      50      50      50      50      50
      50      50      50      50      50      50      50      50      50      50
      50      50      50      50      50      50      50      50      50      50
      50      50      50      50      50      50      50      50      50      50
      50      50      50      50      50      50      50      50      50      50
      50      50      50      50      50      50      50      50      50      50
      50      50      50      50      50      50      50      50      50      50
      50      50      50      50      50      50      50      50      50      50
      50      50      50      50      50      50      50      50      50      50
      50      50      50      50      50      50      50      50      50      50
      50      50      50      50      50      50      50      50      50      50
      50      50      50      50      50      50      50      50      50      50
      50      50      50      50      50      50      50      50      50      50
      50      50      50      50      50      50      50      50      50      50
      50      50      50      50      50      50      50      50      50      50
      50      50      50      50      50      50      50      50      50      50
      50      50      50      50      50      50      50      50      50      50
      50      50      50      50      50      50      50      50      50      50
      50      50      50      50      50      50      50      50      50      50
      50      50      50      50      50      50      50      50      50      50
      50      50      50      50      50      50      50      50      50      50
      50      50      50      50      50      50      50      50      50      50
      50      50      50      50      50      50      50      50      50      50
DSS Path=
Use DSS=False
Use Fixed Start Time=False
Fixed Start Date/Time=,
Is Critical Boundary=False
Critical Boundary Flow=
Boundary Location=Washington      ,2               ,20000   ,        ,                ,                ,                ,                
Interval=1HOUR
Flow Hydrograph= 400 
      50      50      50      50      50      50      50      50      50      50
      50      50      50      50      50      50      50      50      50      50
      50      50      50      50      50      50      50      50      50      50
      50      50      50      50      50      50      50      50      50      50
      50      50      50      50      50      50      50      50      50      50
      50      50      50      50      50      50      50      50      50      50
      50      50      50      50      50      50      50      50      50      50
      50      50      50      50      50      50      50      50      50      50
      50      50      50      50      50      50      50      50      50      50
      50      50      50      50      50      50      50      50      50      50
      50      50      50      50      50      50      50      50      50      50
      50      50      50      50      50      50      50      50      50      50
      50      50      50      50      50      50      50      50      50      50
      50      50      50      50      50      50      50      50      50      50
      50      50      50      50      50      50      50      50      50      50
      50      50      50      50      50      50      50      50      50      50
      50      50      50      50      50      50      50      50      50      50
      50      50      50      50      50      50      50      50      50      50
      50      50      50      50      50      50      50      50      50      50
      50      50      50      50      50      50      50      50      50      50
      50      50      50      50      50      50      50      50      50      50
      50      50      50      50      50      50      50      50      50      50
      50      50      50      50      50      50      50      50      50      50
      50      50      50      50      50      50      50      50      50      50
      50      50      50      50      50      50      50      50      50      50
      50      50      50      50      50      50      50      50      50      50
      50      50      50      50      50      50      50      50      50      50
      50      50      50      50      50      50      50      50      50      50
      50      50      50      50      50      50      50      50      50      50
      50      50      50      50      50      50      50      50      50      50
      50      50      50      50      50      50      50      50      50      50
      50      50      50      50      50      50      50      50      50      50
      50      50      50      50      50      50      50      50      50      50
      50      50      50      50      50      50      50      50      50      50
      50      50      50      50      50      50      50      50      50      50
      50      50      50      50      50      50      50      50      50      50
      50      50      50      50      50      50      50      50      50      50
      50      50      50      50      50      50      50      50      50      50
      50      50      50      50      50      50      50      50      50      50
      50      50      50      50      50      50      50      50      50      50
DSS Path=
Use DSS=False
Use Fixed Start Time=False
Fixed Start Date/Time=,
Is Critical Boundary=False
Critical Boundary Flow=
Boundary Location=                ,                ,        ,        ,                ,Carollton SA    ,                ,                
Interval=1HOUR
Lateral Inflow Hydrograph= 400 
      50   52.08   54.17   56.25   58.33   60.42    62.5   64.58   66.67   68.75
   70.83   72.92      75   77.08   79.17   81.25   83.33   85.42    87.5   89.58
   91.67   93.75   95.83   97.92     100  104.17  108.33   112.5  116.67  120.83
     125  129.17  133.33   137.5  141.67  145.83     150  154.17  158.33   162.5
  166.67  170.83     175  179.17  183.33   187.5  191.67  195.83     200  202.08
  204.17  206.25  208.33  210.42   212.5  214.58  216.67  218.75  220.83  222.92
     225  227.08  229.17  231.25  233.33  235.42   237.5  239.58  241.67  243.75
  245.83  247.92     250     248     246     244     242     240     238     236
     234     232     230     228     226     224     222     220     218     216
     214     212     210     208     206     204     202     200  195.83  191.67
   187.5  183.33  179.17     175  170.83  166.67   162.5  158.33  154.17     150
  145.83  141.67   137.5  133.33  129.17     125  120.83  116.67   112.5  108.33
  104.17     100   97.73   95.45   93.18   90.91   88.64   86.36   84.09   81.82
   79.55   77.27      75   72.92   70.83   68.75   66.67   64.58    62.5   60.42
   58.33   56.25   54.17   52.08      50      50      50      50      50      50
      50      50      50      50      50      50      50      50      50      50
      50      50      50      50      50      50      50      50      50      50
      50      50      50      50      50      50      50      50      50      50
      50      50      50      50      50      50      50      50      50      50
      50      50      50      50      50      50      50      50      50      50
      50      50      50      50      50      50      50      50      50      50
      50      50      50      50      50      50      50      50      50      50
      50      50      50      50      50      50      50      50      50      50
      50      50      50      50      50      50      50      50      50      50
      50      50      50      50      50      50      50      50      50      50
      50      50      50      50      50      50      50      50      50      50
      50      50      50      50      50      50      50      50      50      50
      50      50      50      50      50      50      50      50      50      50
      50      50      50      50      50      50      50      50      50      50
      50      50      50      50      50      50      50      50      50      50
      50      50      50      50      50      50      50      50      50      50
      50      50      50      50      50      50      50      50      50      50
      50      50      50      50      50      50      50      50      50      50
      50      50      50      50      50      50      50      50      50      50
      50      50      50      50      50      50      50      50      50      50
      50      50      50      50      50      50      50      50      50      50
      50      50      50      50      50      50      50      50      50      50
      50      50      50      50      50      50      50      50      50      50
      50      50      50      50      50      50      50      50      50      50
      50      50      50      50      50      50      50      50      50      50
DSS Path=
Use DSS=False
Use Fixed Start Time=False
Fixed Start Date/Time=,
Is Critical Boundary=False
Critical Boundary Flow=