Flow Title=Mississippi Ohio
Program Version=4.20
Use Restart= 0 
Initial Flow Loc=Mississippi     ,Upper Miss      ,110.4   ,148020
Initial Flow Loc=Mississippi     ,Lower Miss.     ,953.5   ,626000
Initial Flow Loc=Ohio River      ,OHS             ,-933.33 ,465560
Initial Storage Elev=1677            ,342.93
Initial Storage Elev=1678            ,338.505
Initial Storage Elev=1679            ,342.707
Initial Storage Elev=1680            ,329.809
Initial Storage Elev=1681            ,321.48
Initial Storage Elev=1682            ,295.286
Initial Storage Elev=1685            ,278.325
Initial Storage Elev=1688            ,271.362
Initial Storage Elev=2022            ,359.8
Initial Storage Elev=2024            ,360
Initial Storage Elev=2025            ,343.836
Initial Storage Elev=2027            ,339.2
Initial Storage Elev=2028            ,339.686
Initial Storage Elev=2029            ,338.931
Initial Storage Elev=2030            ,323.597
Initial Storage Elev=2032            ,339.8
Initial Storage Elev=2033            ,338.769
Initial Storage Elev=2034            ,329.388
Initial Storage Elev=2035            ,307.004
Initial Storage Elev=2036            ,294.989
Initial Storage Elev=2039            ,273.053
Initial Storage Elev=2040            ,288.616
Initial Storage Elev=2041            ,275.949
Initial Storage Elev=2042            ,296.17
Initial Storage Elev=6354            ,290.53
Initial Storage Elev=6355            ,295.9202
Initial Storage Elev=6356            ,305.924
Boundary Location=Mississippi     ,Upper Miss      ,110.4   ,        ,                ,                ,                ,                
Interval=1HOUR
Flow Hydrograph= 3865 
  148020  148460  148900  149230  150000  150120  150360  150960  151320  151680
  151560  151920  152160  152400  152760  152640  152880  152880  152880  153120
  153000  153120  153120  153120  153240  153360  153480  153480  153360  153480
  153480  153600  153360  153480  153360  153240  153360  153120  152880  152640
  152640  152400  152760  152160  151920  151560  151080  151200  150600  150600
  150360  150120  149890  149450  149230  148680  148460  148130  147800  147030
  147030  146590  146590  145930  145710  145490  144830  144720  144280  143950
  143620  143400  143290  142300  142740  142740  142190  142190  142080  141640
  141420  140980  141310  140980  140760  140980  140540  140760  140320  140210
  138560  139660  139660  139880  139770  139440  139330  139220  139110  138340
  138890  138780  138450  138230  137460  137570  137350  137020  136360  135810
  135590  135040  134600  134270  133720  133280  132620  132510  132070  131520
  130970  130640  130200  129870  129650  129320  128990  128770  128220  128110
  127000  127200  127100  126900  126500  126200  126100  125800  125600  125500
  125300  125000  125100  125000  125000  125400  124100  124500  124100  124000
  124100  123800  123700  123700  123000  122900  122600  122600  122000  121900
  121600  121200  121000  120800  120600  120300  120600  119800  119700  116100
  119400  118700  118700  118000  117600  117100  116800  116500  116400  114900
  115700  115800  115700  115400  115600  115500  115400  115500  115700  115500
  115600  115600  115700  115900  116100  116400  116500  116500  116500  116700
  117400  116800  117100  117000  116700  116400  116700  116700  116500  116300
  116300  116200  116100  115900  115900  115600  115500  115500  115300  115300
  115200  115300  115100  114800  114800  114700  114400  114400  114300  114000
  114100  113900  114000  114300  113900  113000  113500  113500  113600  113400
  113600  114400  113600  113700  113700  113500  113400  113500  113700  113500
  113300  113000  113200  112900  112600  112300  112000  112000  112000  111600
  111400  111500  111500  111400  111400  111400  111600  111600  111700  111600
  111400  111300  111500  110800  111500  111400  111500  111400  111300  111400
  111300  111100  111100  111200  111000  110800  110600  110500  110400  110200
  110300  110200  110200  110200  109900  109700  109600  109300  109300  109200
  108500  108500  108300  107820  107820  107640  107640  107460  107010  106560
  106650  106470  106020  105840  105750  105480  105210  105120  105030  104760
  105210  105030  105120  104940  104940  105210  105660  105120  105390  105480
  105570  105750  106020  106200  105300  105840  106020  106110  105570  106290
  105750  105930  105750  105660  105480  105480  105300  105030  104850  104760
  104490  104310  104220  104220  104220  104130  104220  103860  104130  104130
  104040  104310  104220  104490  104580  104850  104850  105030  105300  105210
  105300  105480  105840  103860  105660  105930  105840  105840  105930  105930
  105750  105930  105750  105930  105750  105840  105660  105570  105660  105390
  105480  105570  105390  105750  105570  105570  105480  105570  105570  105660
  105570  105840  105840  105840  106020  106110  106200  106290  106380  106380
  106470  106740  106650  106830  107190  107280  107550  107820  107640  108500
  108800  109100  109500  109700  110200  110500  111000  111700  112100  112700
  113200  113800  114600  115200  115900  116200  116800  117700  118200  118800
  119400  119800  119900  120900  121000  120200  121800  122200  122400  122800
  123100  123300  123100  123400  123700  123700  123500  123600  123400  123600
  123300  123500  123300  123200  122900  122900  123200  122500  122300  122100
  121600  121200  121000  120600  120900  119700  119500  118900  118600  118000
  117800  117700  117400  116900  116400  116300  115900  115500  115300  114700
  114900  114200  113600  113700  113100  113000  112800  112100  112100  111600
  111500  111000  111000  110800  110500  110100  110200  109700  109900  109600
  109300  109000  109300  108600  108700  108200  108300  108000  107730  107280
  107280  106740  106830  106920  106560  106470  106020  105750  105840  105750
  105480  105390  105120  105030  104490  104310  104040  103590  103500  103140
  103050  102600  102330  101970  101700  101340  100980  100620  100350   99810
   99270   99090   98820   98100   97830   97200   97200   97290   96480   96930
   96210   95850   95580   95580   96030   96030   96120   96120   96210   96570
   96840   97110   97470   97830   98280   98640   99090   99720  100350  101250
  101430  102150  102870  103230  104040  104670  105210  105840  106200  107010
  107460  108000  108700  109200  109800  110400  110700  111300  111900  111500
  111600  111700  111800  112100  111700  112100  111700  111900  112100  112000
  111900  111900  111900  111700  111500  111200  110800  110500  110300  109700
  109400  109100  108700  108100  108000  107550  106920  106830  106290  105840
  105570  105390  104670  104310  103770  103230  102600  102330  101790  101340
  101160  100350  100440  100170  100170   99720   99540   99090   99090   98820
   98460   98280   98010   98010   97740   97290   97200   96930   96480   96210
   95850   95760   95490   95130   94770   94680   94410   94770   94230   93780
   93690   93780   93690   93510   93510   93420   93510   93330   93240   93330
   93150   93510   93330   93240   93150   93240   93240   93240   92610   93060
   92880   92970   93060   93060   92970   93150   93150   93240   93600   93780
   94230   94680   94410   94860   94950   95400   95760   96120   96930   96930
   97380   97560   97920   98280   98550   99090   99540   99810  100260  100530
  100800  101430  101160  101880  102330  102870  103140  103410  101520  103590
  104040  104040  104040  104220  104490  104670  104580  104850  104850  105120
  105300  105660  105750  105570  106200  106470  106560  106920  107100  107100
  107280  107370  107550  107730  107550  108000  108300  108400  108700  109000
  109200  109500  109700  110000  110400  110700  111000  111300  111800  112000
  112500  112800  113200  113400  113800  113300  114700  115000  115500  115500
  115700  116100  116500  116100  116400  117000  116900  117000  117000  117200
  117400  117300  117500  117700  117800  117800  117800  118000  117000  118400
  118700  118800  119200  119700  119700  120200  120700  120600  121500  120900
  122300  122900  123500  123200  124000  124400  125300  125800  125600  126000
  126300  126200  126500  127000  126700  126800  126900  126900  127000  126900
  127200  127100  127400  127500  127200  127200  127400  127700  126700  127400
  127600  127800  128000  128110  128220  128440  128220  128000  128330  128000
  127800  128000  127800  127800  127900  127700  127700  127500  127600  127500
  127500  127400  127200  127100  127200  126800  126800  126700  126400  126300
  126100  125800  125500  125200  124900  124600  123800  123700  122500  122900
  122600  122200  121900  121600  121600  121400  120600  120600  120700  119700
  119300  118500  118500  118000  117600  116900  117800  117000  117000  116900
  117700  118200  118600  119500  120400  121400  122300  123200  124700  126100
  128110  129320  131410  133500  135590  138560  141310  144280  146700  149890
  153000  156360  159600  162840  163080  169560  172440  175820  179590  182320
  185440  188540  191620  194420  197500  200020  202950  204750  207600  209700
  211800  213900  215700  217350  218700  221400  220800  224100  226050  227550
  228450  229950  230700  232120  232760  234200  235320  236600  237560  238520
  239160  238520  241080  241880  242840  243000  243800  243640  244440  244440
  245080  245240  244920  244760  244600  243640  243160  242680  242040  240920
  239960  239640  238840  238360  237720  237080  236120  236280  235000  234040
  233560  233880  232920  232600  232120  231800  231480  231480  230700  230400
  230700  230700  230850  230400  230400  231320  231000  231160  231000  231000
  231320  231480  231480  231640  231480  231320  231640  231800  231960  232120
  231800  231640  231480  231320  230850  230850  230400  229950  230100  229950
  229200  228900  228150  228000  227850  228000  226800  226650  226050  226050
  225450  225000  224400  224250  223800  223500  222150  222600  222000  221850
  220950  221100  220200  220650  219750  219600  219300  218700  218550  217800
  217200  216900  216750  216600  215400  215250  214650  214050  212400  212700
  212550  212100  211050  211050  210300  209850  209850  209250  208200  208200
  207750  206850  207150  206250  205650  204900  204600  203400  202800  201900
  201150  200720  199880  199040  198340  197220  196660  195820  194700  193860
  193720  192320  191900  190500  189800  188960  188260  187980  187000  186480
  185830  185050  184530  184140  183490  182840  182190  181930  181410  181280
  180630  179720  179590  178810  178420  178420  177900  177900  177640  177770
  178420  178290  179200  179980  181020  182970  184400  185700  187560  189660
  191480  193160  195400  197360  199320  200580  202350  202950  204450  204750
  205950  206850  207150  207300  207750  208350  208800  208950  209250  209700
  209550  209550  209850  209250  209250  208650  208800  208350  208050  207900
  207150  206550  206550  205800  205500  205200  204000  204150  203400  202800
  202050  201000  201150  200440  200160  199740  199460  198760  198340  197640
  196660  196380  196100  195260  195260  194700  194280  193860  192880  192460
  191900  191200  190920  190500  189660  189100  188400  187980  187140  186740
  185700  184920  184270  183750  182970  182060  181540  180890  179980  179200
  178810  178030  177510  176860  176080  175690  175430  174650  174260  173880
  173160  173160  172800  171960  171960  171600  171000  170280  171000  169920
  169680  169560  168840  168480  168480  168000  167760  167520  167400  166800
  166560  166200  165600  165480  164880  164280  163920  163320  162840  162120
  161520  160920  160200  159480  158760  158280  157800  157080  156240  155880
  155160  154560  154200  153720  153120  152760  152160  151680  150960  150840
  150360  150000  149450  149120  148350  148570  148350  147250  147140  146810
  146260  146370  145490  145160  144720  144390  144060  143730  143070  142850
  142630  142300  142300  142080  141310  140430  141090  140650  140320  140210
  140100  139880  139880  139770  139440  138890  139330  139110  139000  138670
  138230  138340  138230  138120  138340  138120  138560  138560  138340  138230
  138340  138340  138340  138230  138120  138010  137900  137900  137900  137570
  137350  137460  137130  137130  137130  137130  137020  136800  137130  137130
  137240  137240  136800  136580  136360  136470  136800  136690  136800  137020
  136910  137020  135920  137130  137240  137350  137350  137680  137790  138120
  138230  138120  138780  138890  139220  139990  139440  139880  139990  139770
  139880  139990  140100  139660  139550  139550  139440  139440  139330  139220
  139220  139220  139330  139330  139220  139550  139770  139440  139770  139770
  139770  139880  139880  139990  139660  139880  139660  139440  139110  138890
  138780  138230  137790  137240  136690  136250  136140  135150  134710  134050
  133940  133060  132950  129980  132070  131960  131080  130970  130530  129980
  129540  128770  128550  128330  127900  127600  127300  126900  126300  126000
  125700  125500  125300  125200  125100  124700  124800  124600  125100  125100
  125400  126200  127200  128770  129870  132180  133390  135480  136470  138010
  139660  141310  142960  144500  146260  147360  148240  150360  151440  153000
  154320  155280  156600  157320  158400  159360  160560  161640  162360  162960
  163680  163800  165240  166440  167520  168120  169440  170640  171720  173400
  174910  176340  178030  179980  181670  184010  186090  188260  190360  192880
  194840  197780  199740  199880  204450  206250  208350  210150  212250  213300
  214950  216450  218250  219300  220350  221400  222600  223800  225000  225900
  227550  227550  228600  228600  229500  230100  230400  231480  232120  232440
  233880  234520  235320  236760  238200  238360  239800  240760  242360  243640
  245080  246680  247340  248870  251590  253290  255160  257030  259070  260940
  263490  265260  266880  268500  270660  272280  273540  274620  275700  277140
  278040  279120  279660  280200  279480  281820  282180  282180  282360  282720
  283080  283080  283440  283440  284160  284160  283800  284160  284160  284160
  283800  283440  283260  283080  281820  281640  280560  279480  279120  277320
  277500  276780  276060  275700  274260  274980  274080  274440  273900  274260
  274440  274440  273720  273900  273180  273360  273540  272820  273180  273180
  273360  273000  274260  273720  274260  274620  274800  274260  273900  274620
  274800  274620  274440  274620  274800  274800  274620  274620  274260  274080
  274080  274440  274260  273720  273540  273360  273000  273180  272820  272280
  271920  271560  270300  269940  269760  268320  267600  266700  265980  265080
  264720  264000  263490  262640  262470  261280  261280  259750  259580  259920
  259070  258730  257540  256860  256010  255500  254650  254140  253460  251930
  251930  251250  250060  249380  248700  248360  247340  246360  245880  245240
  244760  244600  243320  243000  242040  241720  241720  241080  240600  239640
  239160  238200  237720  237240  235960  235160  234840  234040  233400  232440
  231800  230850  230100  229650  228450  228000  227550  226650  225750  225000
  224100  223800  222900  222000  221100  220500  220200  219150  218400  217650
  216750  216300  215100  214050  213000  212250  211500  211050  210750  210000
  209250  208500  208350  207300  207150  207000  206550  206400  205950  205200
  205050  204600  204750  204450  204600  204450  204600  205050  204900  205500
  205950  206850  207900  209550  212250  213450  215400  217650  220050  222900
  225300  228000  229800  232760  235480  238840  241400  243800  245400  247850
  250060  253460  254990  257880  260600  263490  266340  269220  272100  274620
  277860  279480  282360  284880  287220  290280  292260  294420  296400  298920
  300800  303000  304600  306000  308400  309600  310400  311200  311400  313400
  313600  315000  315000  315000  315000  315400  315200  316000  315400  314400
  314600  314200  313600  313200  313400  312600  312600  311200  310800  310800
  309800  309400  309000  308400  308000  307200  306400  306200  306200  305000
  303800  303600  302800  302800  301600  301800  301400  300000  299460  299100
  297660  296760  296220  295500  294780  293340  292620  291540  290460  289740
  288480  286500  285600  284520  283260  281820  280920  279480  278400  277500
  276600  275340  274440  273180  272460  271380  270120  269220  268680  267060
  266520  265620  265260  263490  262810  261620  260770  259920  258220  257540
  256860  255500  254140  253800  253120  250400  249720  248700  248020  246040
  245880  244760  243640  243160  242520  241080  240600  239800  239160  238520
  237880  236440  236600  235960  235160  234680  234520  233400  232920  233240
  232440  232280  231800  231320  231000  230700  230250  229800  229650  229050
  228300  227850  228000  226950  226800  226200  225900  225300  225000  225000
  223800  223200  223350  222750  222300  221250  221400  220950  220650  220200
  219750  219450  219450  219150  218850  218550  218250  217800  217350  217350
  216900  216450  216150  215850  215550  214950  214200  214200  214350  213900
  213450  213300  213000  212400  211800  210750  211050  210750  209700  209100
  209100  208800  208050  207900  207450  207150  206700  206100  205650  205500
  205050  204600  204150  204150  204000  200860  203700  203550  202950  203100
  202650  203250  202950  202950  202650  203100  202650  202350  201300  201450
  200720  200440  200020  199600  198620  198760  197920  197780  197360  196800
  196100  195680  194980  194700  194280  193440  192740  191900  191620  191060
  190500  189940  189380  188820  188400  187980  187140  186220  185570  185310
  185050  184400  184790  183880  183750  183360  183360  182970  182580  182710
  182450  182060  182450  181800  182060  181800  181800  181930  181540  181670
  181540  181540  181410  181280  181670  181280  181410  181020  181150  181150
  181020  180630  180370  180370  179850  179590  178940  178680  178550  178030
  177900  177250  176990  176730  176470  175950  175300  175040  174650  174130
  173400  173520  172800  172320  172080  171240  171240  170520  170280  169680
  169440  168960  168840  168600  168360  168360  167760  167640  167520  167160
  167040  166920  166800  166200  166200  165960  165480  165120  164760  164640
  164280  163920  163200  162960  162600  162240  161520  161040  160440  160800
  159360  159120  158760  158400  157920  157680  156960  156720  156240  155760
  155160  154800  154440  153600  153120  152400  138890  115900  132620  149670
  148790  148130  147250  146590  145600  145050  143840  143180  141970  141530
  139660  138890  138340  137350  136250  135150  123000  112300110593.3108886.7
  107180105473.3103766.7  102060  127800  127100  126600  126300  124500  124500
  124000  123200  122500121753.3121006.7  120260119513.3118766.7  118020117273.3
116526.7  115780115033.3114286.7  113540112793.3112046.7  111300  114000  113400
  113200  112900  112800  112200  112000  112500  112500  112600  112500  112600
  112900  113100  113000  113200  113700  114000  114100  114500  114800  114400
  115400  115900  116300  116500  116700  117000  117400  117700  117300  118400
  118400  119100  119200  119400  119500  119800  119900  120000  119700  120300
  120200  120200  120200  120200  120200  120400  120500  119600  119600  119500
  119100  118800  119000  119100  119000  118800  118800  118900  119000  118800
  119000  119200  119300  119300  119100  119500  119500  119600  119600  119800
  119800  119900  119900  119900  120100  120200  120100  120300  120300  120200
  119800  120200  120000  120100  120200  120200  119900  120300  120200  119900
  120000  119900  119800  119500  119500  119200  118800  118500  118400  118500
  118100  118000  117600  117400  117000  116900  117000  116900  117000  117200
  117000  117000  117000  117200  117300  117500  117700  117800  118100  118300
  118500  118400  118600  118800  119500  118900  119100  119100  119000  119200
  118900  118700  118300  118100  118000  117700  117300  116800  116800  116300
  116100  115400  115200  114500  114100  112800  113100  112400  111900  111500
  111100  110700  110200  109700  109500  109400  109200  109000  109100  109000
  109200  109100  109400  109600  109600  109600  110000  110200  109700  111000
  111000  111200  111600  111600  111500  111700  111800  112100  112200  112100
  112300  112200  112300  112200  112100  111700  111900  111600  111500  111800
  111000  110900  110900  110200  109600  109600  109300  108800  108500  108300
  108000  107640  107370  107010  106830  106650  106740  106380  106650  106650
  106740  107010  107370  107820  108400  108700  109500  110800  112300  113800
  115300  116700  118300  119300  120500  121900  123400  125000  126600  128330
  130420  131080  135150  136800  139110  141310  143840  146590  149010  151800
  154800  157320  160560  163440  166800  169920  173640  177250  181410  186220
  190640  195260  199320  204450  209550  215850  222300  227700  234840  242360
  249720  258050  266880  274980  283620  291540  301200  310600  320400  331200
  340000  350000  361000  370600  376600  387200  395600  401800  409400  415800
  421800  426800  431000  435800  440600  443800  448400  452200  454600  459600
  463400  465400  468000  470600  473200  476000  478600  480200  483000  485400
  487000  489600  491600  493600  493400  496200  497200  499400  500880  502640
  503960  505720  505720  505940  508800  508140  510120  509680  510560  511220
  511000  510560  509460  510340  510560  507920  507040  506380  504180  502420
  501100  499600  498000  496200  494800  493600  491200  488000  486400  484200
  483000  480000  478400  474800  474400  472400  470000  467600  466800  463400
  461400  460000  458370  455800  454800  453000  451800  449200  447200  445600
  445800  444200  443800  442200  441000  440600  438800  439200  437200  436800
  435400  434200  434000  432400  430800  429800  428400  427600  425400  424000
  421600  420000  419600  415200  415000  412200  410800  409000  406600  404400
  401200  399600  397200  395400  393200  391200  388200  386400  384400  381000
  380400  378200  376600  375600  373000  371200  369800  368600  367200  365400
  364600  362600  361000  359800  359400  357200  356000  354600  353200  352400
  348200  349800  348600  347200  346800  346000  344600  343000  342600  341200
  340800  338400  337800  336400  334800  334200  332200  331800  331000  328400
  327800  327600  326400  326600  325000  326400  325800  327600  328200  330800
  333400  336200  340200  344600  348600  349800  353400  359400  364200  366600
  373400  375200  380800  384200  389200  392600  395600  399800  402800  405200
  409800  412600  416400  417400  420800  424400  426600  430400  433000  434400
  438800  440400  441600  445000  446800  449800  451600  452200  455400  458000
  458400  461600  462800  465200  466200  468800  469400  470800  470800  472600
  473800  474600  475200  475200  475000  476200  475600  476600  476400  477000
  477000  476400  475000  473200  474600  473000  471800  470000  467400  466400
  463800  461600  459400  457600  455400  453400  451200  449600  446400  444200
  442800  441200  438200  437200  435800  433400  432000  429400  428600  427600
  425800  423000  423800  422200  420400  420000  418800  416600  415200  414800
  413600  411000  411400  409400  408000  406000  404000  403200  400800  399200
  398000  395800  393400  392200  389800  387800  385400  383600  381600  379200
  378000  375600  373400  372000  369800  367600  365800  364200  362600  360800
  358800  357400  355200  352800  351400  349400  348800  346800  344600  343000
  340400  339400  337600  335800  334600  332600  331200  330600  328800  328200
  325800  323400  322600  321200  319600  317400  316400  316200  313800  312800
  311800  309800  309400  307800  307400  305600  305200  304200  302600  302000
  300600  299640  299100  298920  298020  297480  297300  297480  296940  295680
  295500  295140  294420  294240  292980  293340  292620  292440  291720  291180
  290820  290460  290100  289920  289380  289740  288840  287940  287940  287580
  287760  287220  286860  286500  285960  285780  285240  285600  283800  284700
  284160  284340  283980  284160  283800  282360  282360  282360  282720  281280
  281640  280920  280740  279840  279300  278580  276960  277500  276420  276960
  275880  275340  274800  275340  274980  274260  274080  273900  273900  273720
  273180  273000  271920  272820  271020  271380  271020  269940  270300  269400
  268680  266520  265980  265260  264360  263320  261620  260940  258730  258390
  256690  255840  255160  254480  252950  252610  251930  250910  250740  250060
  249380  249040  248870  248360  247850  247850  248700  247680  248020  247340
  248020  247510  247680  246360  247170  246840  247000  246200  246520  246520
  246520  246360  246360  246360  246360  246520  246200  246360  246200  246200
  246200  246040  244600  245880  246200  245400  245400  246040  244920  245080
  244600  243960  244280  244120  243000  243160  243160  242200  242520  242520
  241880  241880  241240  240760  240920  240440  239800  239480  239000  238520
  238040  237880  237240  236440  235960  235160  234840  234200  234040  233560
  233400  232600  232600  231800  231160  231000  230700  230250  230100  229650
  229650  228750  228150  228450  228450  227550  227400  226800  226500  225750
  225600  225000  224850  224100  223350  223350  222750  222450  221850  221550
  221100  220950  220500  220350  219600  219000  219300  218400  218700  218550
  218400  217950  217500  217650  217350  217050  216450  216000  216150  215100
  215550  215100  215250  214650  214950  214650  214650  214200  214350  214200
  214350  214500  214350  214800  214800  215400  215100  215250  215250  215850
  215250  216000  216150  216000  215700  216000  216000  215700  215550  215700
  214950  214950  214800  214650  214650  214050  213600  213450  212550  212700
  212550  212400  212100  211800  211350  210450  210900  210750  210900  210150
  210300  210300  209850  207900  209550  209100  208950  209400  209100  208950
  208950  208500  208350  208650  207600  207900  207750  207450  207900  207300
  207600  207600  207000  207450  206850  206700  206100  206250  205500  205350
  204900  204600  204300  204300  203700  204150  203550  202650  202500  202200
  201600  200860  200720  200300  200160  200300  199880  199320  199040  199040
  197360  198340  197220  197640  196940  196940  196520  196660  194000  195120
  195260  194840  194840  194420  194140  194000  194000  194000  190360  193440
  193160  193160  192740  192740  192180  191900  191620  191200  190780  190220
  189800  189100  188820  188680  188260  187840  187280  187140  186870  187000
  186870  186220  185180  186090  185830  185440  185050  185440  184920  184920
  184920  184920  185310  184400  184660  184660  184400  184400  184010  183620
  183750  183490  183100  183230  183100  183230  183100  182710  182580  182450
  181670  181930  181410  181410  181280  181410  181280  181150  181020  180760
  181280  181410  181020  181020  181280  181540  181280  181930  181670  181800
  181670  182060  182060  182450  182450  182060  182580  182840  182190  182580
  182580  182580  182450  182190  182060  181930  182060  182320  182320  182320
  181930  182320  182060  181930  182450  182190  182450  182320  182580  182450
  182970  183620  183750  184010  184920  184920  185960  186350  186740  187280
  187700  187980  188680  189380  188680  190640  191760  192600  193440  194280
  194980  195680  197360  198060  198900  199600  200300  201750  202350  203850
  204750  205350  206400  207450  208350  208800  209250  210600  210900  211500
  212550  212550  213450  213600  214500  214800  214950  215550  215250  215850
  215700  215550  215850  216000  215700  216000  215850  215700  215700  216150
  216000  216600  216600  216900  217200  217650  217800  218400  219000  219450
  219600  220500  220950  221550  222150  223050  223500  224100  225150  225150
  226350  226050  227400  227550  228600  229200  229500  230550  231640  231960
  233080  234040  233880  235320  235480  235160  237080  237560  238520  238680
  239000  239960  240440  240760  241080  241720  242200  242200  242680  243160
  243480  244280  244120  244600  244600  245400  245080  244600  245080  245080
  245080  244920  244600  244600  244120  243800  244120  243640  243000  243160
  243160  242840  242200  242680  241880  242360  242040  241880  242200  242360
  243160  243800  243640  244440  244440  245080  246040  246360  247850  249040
  250230  250740  251760  252440  253970  254990  256860  258050  260600  261790
  264000  265800  267960  269580  271740  274260  277500  279120  281640  283440
  287400  290280  292980  296040  299820  303000  305200  309200  313000  316800
  319400  322200  325200  328800  331800  334600  338800  341600  343600  347600
  350600  353400  357000  360000  363000  366200  368400  370600  373400  374800