Geom Title=Mississippi Ohio Junction
Program Version=6.50
Viewing Rectangle= 1734027.84 , 2158048.59 , 5501361.55 , 4840742.53 

Junct Name=Ohio_Miss       
Junct Desc=, 0 , 0 ,-1 ,0
Junct X Y & Text X Y=1987235.75,5153559,1987235.75,5153559
Up River,Reach=Mississippi     ,Upper Miss
Up River,Reach=Ohio River      ,OHS
Dn River,Reach=Mississippi     ,Lower Miss.
Junc L&A=7171,
Junc L&A=4666,

River Reach=Mississippi     ,Upper Miss      
Reach XY= 369 
1738184.90698697 5494884.89083911738918.822007655493873.24312783
1740167.834734695492279.675160651741309.173953065490535.36427809
1742579.721390485488726.449287171743613.387095225487563.57536555
1744754.726319335486314.562634711746542.106602685484311.83532381
1748803.25033952 5482524.45503641750482.957116615481447.71992373
1751624.29633618 5480823.21355821752937.913175115480306.38070322
1755005.244594585479638.804933791756771.090179915478755.88214112
1759290.650345815477399.195898541760905.753012185476020.97495414
 1762542.39038545474901.170436631764846.603526355473049.18604231
1766655.518514885472187.797951461769218.148082495470486.55647326
1772146.867590915469366.751955511775054.05239559 5468548.4332695
1778327.327139855467407.094048741780480.797366395466201.15072322
1782160.504143015465145.950312381783560.259789485464155.35400844
1784270.90496589 5463660.05585671785886.007632265462518.71663642
1787371.902089135461269.703905111788061.012560865460322.17700577
1788922.40065219 5458836.28255011789783.788743025457479.59630752
1790882.058556565456165.979470021792109.536585825454357.06448007
1793293.945210935453043.447642081794672.166160115451794.43491054
1796308.803526655450631.560988431797514.74685645 5449942.4505167
1799172.918927455449016.458319191801218.715643175447939.72320652
1803695.206405395446626.106367831805848.676627645445441.69774413
1808195.959174415444020.407395841810306.359995865442082.28419161
1811856.858559385439498.119920251812524.434332375437990.69076205
1812933.59367561 5436138.7063675 1813019.73248035435040.43655252
1812890.524267455433468.403287181812632.107840555431702.55770183
1812072.205581195430604.28788638 1811641.51153975428924.58111048
1811856.858559385427051.062013631812115.274988885425909.72279406
 1813192.01009995424832.987680911814441.022830025423799.32197213
1816163.799011465422744.121561771817585.089360955421839.66406632
 1819135.58792285421193.622998721820901.433508175420396.83901501
1822968.764925735419212.430391081824670.00640488 5418200.2993846
1826220.504966025417252.772485261827081.893056885416585.19671488
1829515.314412355415163.906365631831991.805171975413893.35893226
1834209.879504925412945.832032921836750.974371675412105.97864485
1839399.742749715411136.917043211841747.025295985410490.87597537
1843577.474988465410167.855442051845020.300040985409844.83490777
1847475.256097085409457.210266831849628.726323615409004.98151899
1851394.571908945408617.356878531853871.06267024 5407971.3158114
1855184.67950677 5407346.80944491856347.553428665406119.33141661
1857101.268008485404698.041066891857359.684435125402393.82792497
 1857381.21913845401015.606980561857338.149734985399852.73305846
1857144.337416895398560.650923021857079.733310955396794.80533767
1857359.684435125394253.710470681857553.496760135391841.82381773
1857531.962053075389839.096507311857553.49676013 5388353.2020514
1857704.239670995386996.515809311858091.864315765385747.50307799
1858716.370677715384649.233262541859362.411744845383809.37987424
1860223.79983617 5382172.74250271860589.889774575381182.14619899
1860568.355072975380234.619299171860482.216263065378964.07186556
1860137.661027915377456.642707831860094.591623315376358.37289238
1859965.383409285375712.331824071859103.995320345374398.71498656
1858888.64829516 5372955.88993551858759.440083275371749.94660854
1858178.003121145369725.684595591857941.121396565367335.33264518
1857919.586694965365483.348250871857962.656103625363695.96796322
1858005.725502515361930.122377871858091.864315765359087.54167891
1858113.399014015357515.508414511858307.21133471 5355706.5934248
1858630.231871125354199.164266121859125.530020485352756.33921481
1859663.897577545351141.236545321860073.056920075349418.46036459
1860719.097987425348169.447633511861537.416673445347243.45543647
1862075.784229765345800.630384931863346.331663625344271.66652393
1864358.462669375343173.396709681865112.177248975341795.17576432
1865693.614212775340524.62833072 1866447.32879335338392.69280744
1867179.508666755336669.916626461867739.410929455334796.39752961
1868493.125503785332879.809028151869655.999425415331092.42874074
1871507.983821395328938.958514211872369.371910835327883.75810432
1873596.849939345326570.141266591874630.515649085325730.28787804
1876977.798199675322909.241882091878722.109078185321423.34742618
1880466.419961695319463.689520361882103.057333015317762.44804167
1883718.160001995315673.581922061884794.895115155313929.27103877
1885871.63023281 5312077.28664471886302.324273835311065.15563918
1887034.504150165309385.448862551887766.68403031  5307727.276788
1888520.398610855306047.570011861889704.807231445303614.14865613
1890243.174788015301977.511284111891061.493473785299436.41641784
 1891406.04870945297864.383152971891556.791625285296421.55810142
1891621.395731235294655.71251607 1891492.18751935292803.72812177
1891362.979307195290327.237361681890975.354663855288432.18356299
1890695.403539425287053.962618121890221.640085945284448.26364494
1889726.341933735283156.181509021888951.092652095282014.84228873
1887895.892242425280485.878428941886625.34480714 5279064.5880797
1885462.470889345278569.289927481883029.049529795277707.90183664
1881370.877456195277169.534280541879755.774789825276846.51374698
1877408.492240665276437.354403741876267.153019445276092.79916764
1875341.160826455275791.313336141874716.654457815275231.41107774
1873941.405175925274413.09239078 1872886.20476655273099.47555327
1872197.094292165272108.879249341871594.122630375271247.49115897
1870022.089363815269589.319084171869289.909489655268749.46569657
1868536.194908865267888.077605971867868.619141345266983.62011123
1867351.786283985265993.023807291866942.626940975264980.89280129
1866770.349323515263968.761794811866533.46759772 5262461.3326366
 1866339.65527875261363.062821631866167.377661965260243.25830412
1865908.961237685258369.739207511865370.59367608 5256151.6648736
  1865026.0384455254342.749884611864961.434333565252555.36959577
1864659.948501115251392.495674841864423.066776775250444.96877432
1864444.60147977 5249626.65008951864982.969036335248506.84557271
1865585.940698635247322.436946631866533.467597725246374.91004706
1867847.084435465245405.848447811869117.631869325244716.73797775
1871292.636797915244092.231609111874092.148091095244286.04392911
1875039.674992085244522.925655131876482.500043175244953.61969782
1878829.782588975245298.174934391880208.003533125245405.84844781
1881564.689775485245362.779040811883093.653636465245319.70963931
1884105.78464748 5244781.34208371884579.548096675244307.57863451
1884924.103333965243489.259947781884644.152202845242412.52483678
1884579.548096675241055.838594921883868.902918345238471.67432285
 1883072.11893565235263.003682141882361.473759665233454.08869314
1882447.612568145232808.047624111882619.890186795231236.01435805
  1883309.0006595229771.654607781883998.111132385228156.55193711
1884644.152202845226455.310462241885763.956717745224108.02790975
1886108.511953855223052.827503451887077.573555725221459.25953174
1888003.565752755219801.08746386 1888778.81503515218939.69936729
 1889403.32140355217712.221338991890393.917702215216420.13920331
1891449.118113535214632.758919721892418.179716125212802.30922818
1893322.637210615210907.25542641 1893731.79655415209615.17329479
1894291.69881655 5208581.5075829 1895346.89922315207181.75193453
1895820.662673485206083.482123851896445.169038065205092.88581371
1898232.549330725202745.603271251899180.076229355201345.84762097
1899761.513185515200419.855424411900773.644193415199300.05090809
1902216.46924378  5198094.1075791903659.294298885196931.23365761
1905209.792859085195983.706757551906071.180949455195337.66569233
1907190.985469825194627.020515211908203.116474645193744.09772253
1909387.525096425192667.362609381909882.823248165191999.78684068
1910464.260209325191116.864048011910894.954255345189803.24720883
1911217.974789615188984.928523311911842.481154695187563.63817382
1912337.779306415186142.347824571912488.522222535185087.14741731
1912510.056925545184398.036942721912165.501688965182869.07308245
1911799.411749845181426.248034241911196.440086625178885.15316344
1911067.231873045178023.765075691910916.48895717  5176580.940022
1910507.329614425175030.441460141910593.46842361 5173802.9634304
1911368.717705255172510.881294731912466.987519765171175.72975922
1912962.285671955170142.064047341914189.763700965168849.98191119
1915244.964111585167967.059118511916106.352202425167191.80983519
1917786.058978565166265.817639361918647.447068455165835.12359286
1919982.598609225165425.96424985 1921339.28485185164779.92318511
1922717.50579573 5164241.55562951924612.559595355163466.30634427
1926033.849944595162927.938788661927153.654461385162475.71004415
1929134.847070225161463.579039341930728.415036925160752.93385983
1931934.358363865159977.684580331932838.815858385159180.90059448
1934217.036802785158039.561375621935207.633107435156833.61805058
1936155.160006785155778.417637831937554.915653715154615.54371762
1938911.60189582 5153560.34330561940526.704565295152935.83693886
1941560.370274325152828.163430461942981.660623075152677.42051291
1944316.812163125153495.739198931945328.94316959 5154809.3560412
1946470.282389885156209.111683611946814.837625995156962.82626271
 1947611.62160975158620.998337991948063.850356575160149.96219731
1948214.59327246 5162174.22420861948193.058569925163595.51455784
1948128.454463265164370.763841631947697.760418675165296.75603628
1947030.184647795166093.540022371946190.331260455166847.25459957
1944855.179720185167708.642694471944273.742758995168203.94084192
1942744.778898715169129.933042531941258.884442345170185.13344956
1940117.545222525170615.827496771938179.422019245171391.07677746
1936865.805181265172015.583141571936004.417091145172403.20778465
1935466.049534575172812.367127661934518.522635245173824.49813724
1933291.044606935174922.767948151931977.427767995175999.50306606
 1931719.01134115176774.752341281931675.941936755177808.41805101
1931934.358363865179703.47184992 1932558.86472945181426.24803424
1933097.232285995183149.024210221934087.82858968 5184850.2656889
1935186.098405125185991.604910141936176.694708595187240.61764098
1936865.805181265187886.658710011938071.74850774 5188791.1162026
1939083.879513745188898.789719351940311.35754253 5189200.2755456
1941926.460212725189286.414355761943003.195325855189178.74084568
1943778.444606565188834.185613151944553.693888445187951.26282049
1945544.290191895186723.784790521946254.935367115185819.32729173
1947051.719350115184376.502239231947934.642142785183127.48951363
1948571.217151175181827.66451288 1949248.25898175180435.65172553
1949851.230644465179337.381911751950389.598201055178605.20203329
1951250.986291175176796.287045491952026.235573065175095.04556632
1952834.096170675173636.24992561 1954136.63639455171800.23612047
1955084.163293855170831.174521931956225.502513665169775.97410655
 1957431.4458399 5168742.30840041959003.479104775168139.33673478
1960209.422431235167665.573285111961587.643376595167105.67102862
1963008.933725365166093.54002237 1963719.5789001 5165275.2213366
1964580.966990495164327.694437031965205.473356495163143.28581167
1965615.061463365162288.799525031965873.049126395161011.35028648
1966109.930850995159719.268150811966562.15959858 5158233.3736949
1966971.31894182 5156252.18108751967272.804772635154895.49484515
1967272.804772635153624.947412261967552.755902055152462.07348919
1967983.44994785 5151557.61599661968478.748100045150911.57492757
1969210.927976625150308.60326458 1970093.85076935149684.09689808
1971019.842966085148994.986425171972247.320995345148650.43118906
1973582.472535145148370.480061051974551.534136795148327.41065598
1975262.179311995148305.875953911977329.510728615149490.28457833
1978320.10703278 5150050.18684031979289.168634425150760.83201051
1980602.785472635151363.803674231981981.006417745151923.70593309
1983230.019147895152354.399981021984651.309497135152763.55932451
1985921.856930745153194.253367431986847.849128025153452.66979909
1987000.207328565153486.895791061987116.455937395153517.66696406
1987235.766195075153559.17811394
Rch Text X Y=1775775.5809794,5392393.4642268
Reverse River Text= 0 

Type RM Length L Ch R = 1 ,110.4   ,2615.69,2579.23,2256.81
BEGIN DESCRIPTION:
953.5
END DESCRIPTION:
XS GIS Cut Line=5
1758457.452223295479424.228718051756988.562443985477120.34093762
1756899.505799015473844.962199521756897.648304855473776.64616442
1756895.958811735473714.50897235
Node Last Edited Time=Apr/25/2010 18:47:59
#Sta/Elev= 51 
       0  405.74   36.47   398.5   72.93  394.37   109.4   392.2  145.87  390.09
  182.33  387.96   218.8  386.39  255.27  385.15  291.74   383.4   328.2   380.3
  364.67  375.62  401.14  369.14  428.45  362.76  460.53  363.88  473.08  357.71
  663.53  324.82  726.29  321.35  781.22  323.35  892.77  322.02  963.26  319.65
    1011  321.05 1062.18  320.33 1107.82  321.54 1244.73  321.82 1292.95  320.42
 1398.98  324.88 1400.02  324.91 1475.42  325.98 1609.14  330.45 1839.38  331.38
 1856.55  333.79 1901.68   334.3 1901.87   334.3 2006.41   335.6  2178.1  329.04
 2215.43  329.98 2255.15  328.33 2274.35  326.29 2320.16   330.3 2467.58  337.21
  2667.7  356.73 2804.23  357.74 2840.16  365.11 2849.13  363.36 2895.68  361.04
 2901.53  363.13 2904.12  365.54  2931.5  369.43 2975.89  371.75 3001.66  376.18
  3009.8  386.01
#Mann= 3 ,0,0
       0      .1       0  460.53   .0265       0 2840.16      .1       0
Bank Sta=460.53,2840.16
XS Rating Curve= 0 ,0
XS HTab Starting El and Incr=320.15,1, 100 
XS HTab Horizontal Distribution= 5 , 5 , 5 
Exp/Cntr=0.3,0.1

Type RM Length L Ch R = 1 ,110.399 ,2615.69,2579.23,2256.81
BEGIN DESCRIPTION:
953.49
END DESCRIPTION:
XS GIS Cut Line=5
1758457.452223295479424.228718051756988.562443985477120.34093762
1756899.505799015473844.962199521756897.648304855473776.64616442
1756895.425821935473694.90635366
Node Last Edited Time=Apr/25/2010 18:47:59
#Sta/Elev= 52 
       0  405.74   36.47   398.5   72.93  394.37   109.4   392.2  145.87  390.09
  182.33  387.96   218.8  386.39  255.27  385.15  291.74   383.4   328.2   380.3
  363.32  375.79  401.14  369.14  428.45  362.76  434.71   372.6  470.53  363.88
  483.08  357.71  673.53  324.82  736.29  321.35  791.22  323.35  902.77  322.02
  973.26  319.65    1021  321.05 1072.18  320.33 1117.82  321.54 1254.73  321.82
 1302.95  320.42 1408.98  324.88 1410.02  324.91 1485.42  325.98 1619.14  330.45
 1849.38  331.38 1866.55  333.79 1911.68   334.3 1911.87   334.3 2016.41   335.6
  2188.1  329.04 2225.43  329.98 2265.15  328.33 2284.35  326.29 2330.16   330.3
 2477.58  337.21  2677.7  356.73 2814.23  357.74 2850.16  365.11 2859.13  363.36
 2905.68  361.04 2911.53  363.13 2914.12  365.54  2941.5  369.43 2985.89  371.75
 3011.66  376.18 3029.41  386.01
#Mann= 3 ,0,0
       0      .1       0  470.53   .0265       0 2914.12      .1       0
Bank Sta=470.53,2914.12
XS Rating Curve= 0 ,0
XS HTab Starting El and Incr=320.15,1, 100 
XS HTab Horizontal Distribution= 5 , 5 , 5 
Exp/Cntr=0.3,0.1

Type RM Length L Ch R = 6 ,110.39  ,,,
BEGIN DESCRIPTION:
953.4
END DESCRIPTION:
Node Last Edited Time=Dec/14/2008 20:25:57
Lateral Weir Pos= 3 
Lateral Weir End=                ,                ,        ,2022            
Lateral Weir Distance=50
Lateral Weir TW Multiple XS=0
Lateral Weir WD=30
Lateral Weir Coef=2
LW OverFlow Method 2D=0
LW OverFlow Use Velocity Into 2D=0
Lateral Weir WSCriteria=-1 
Lateral Weir Flap Gates= 0 
Lateral Weir Hagers EQN= 0 ,,,,,
Lateral Weir SS=0.05,0.05,
Lateral Weir Type= 0 
Lateral Weir Connection Pos and Dist= 0 ,
Lateral Weir SE= 2 
       0  386.54    2000  386.54
Lateral Weir Centerline= 0 
Lateral Weir HW RS Station=110.399 ,-50
Lateral Weir TW RS Station=,0
LW Div RC= 0 ,False,,

Type RM Length L Ch R = 1 ,109.93  ,49.95,50.1,49.89
BEGIN DESCRIPTION:
953
END DESCRIPTION:
XS GIS Cut Line=6
1760432.23337819 5477670.22861721758422.925716885474801.23796392
   1758404.063315473880.428199751758404.012333295473877.93965908
1758402.708965265473814.312870431758402.670464735473812.43338191
Node Last Edited Time=Apr/25/2010 18:47:59
#Sta/Elev= 39 
       0  404.25   37.54  399.18   75.08  395.71  112.62  391.73  150.16  385.39
   187.7  376.69  225.24   368.6  262.78  364.26  263.35  364.24  266.57  390.98
  285.27  379.97  305.77  373.07  332.94  369.93  351.72  364.53  365.09  357.77
  548.79  327.92  710.43  319.96  768.11  319.07  819.67  315.81   927.5  320.77
  981.46  319.75 1045.49  321.66 1046.87   321.7 1192.03  319.09 1372.32  326.87
 1436.92  327.81 1545.67   325.6 1546.88  325.58 1675.53  329.87 1728.53  328.82
  1954.6  334.24 2051.04  334.27  2084.7  336.09 2117.22   351.2 2154.42  357.74
 2179.15  364.48 2201.93  369.14 2316.05  371.06 2317.93  383.93
#Mann= 3 ,0,0
       0      .1       0  351.72   .0265       0 2179.15      .1       0
Bank Sta=351.72,2179.15
XS Rating Curve= 0 ,0
XS HTab Starting El and Incr=316.31,1, 100 
XS HTab Horizontal Distribution= 5 , 5 , 5 
Exp/Cntr=0.3,0.1

Type RM Length L Ch R = 1 ,109.92  ,63.26,63.4,63.02
BEGIN DESCRIPTION:
952
END DESCRIPTION:
XS GIS Cut Line=5
1760407.84563161 5477548.4621284 1758472.08703595474784.50112105
 1758453.49556855473876.926026011758453.486148285473876.46616155
1758453.484508245473876.38610022
Node Last Edited Time=Apr/25/2010 18:47:59
#Sta/Elev= 41 
       0   389.7   37.54  384.48   75.08   376.7  133.28  400.74   168.9  392.63
   181.2  390.81  201.53  379.97   221.8  372.84  246.39  370.62  264.08  364.48
  277.28  357.77   399.9  332.46  405.01  331.77  459.73   328.1  494.02  325.88
   494.5  325.85  627.34  319.44  649.99  319.74  670.01  319.18  679.66  318.61
  726.53  315.64  841.79  320.75  902.03  319.56  966.69  321.57 1103.48  319.11
 1284.13  326.72 1322.99  327.21 1343.01  327.48  1355.2  327.77 1444.26  325.48
 1592.08  330.21  1644.8  329.18 1878.43  334.58 1878.46  334.58 1989.99  336.61
 2010.01  343.11 2024.27  349.05 2073.71  357.74 2126.72  369.58 2177.79  370.91
 2177.87  384.28
#Mann= 3 ,0,0
       0      .1       0  246.39   .0265       0 2126.72      .1       0
Bank Sta=246.39,2126.72
XS Rating Curve= 0 ,0
XS HTab Starting El and Incr=316.14,1, 100 
XS HTab Horizontal Distribution= 5 , 5 , 5 
Exp/Cntr=0.3,0.1

Type RM Length L Ch R = 1 ,109.91  ,49.95,50.1,49.89
BEGIN DESCRIPTION:
951
END DESCRIPTION:
XS GIS Cut Line=5
1760450.714968445477499.538341521758541.446149835474773.84825492
1758520.798606115473913.42850989 1758520.20566015473888.71939833
1758520.154558035473886.58988444
Node Last Edited Time=Apr/25/2010 18:47:59
#Sta/Elev= 39 
       0  387.85   37.54  382.63  133.28  400.74   168.9  392.63   181.2  390.81
  201.53  379.97   221.8  372.84  246.39  370.62  264.08  364.48  277.28  357.77
   399.9  332.46  405.01  331.77  459.73   328.1  494.02  325.88   494.5  325.85
  627.34  319.44  649.99  319.74  670.01  319.18  679.66  318.61  726.53  315.64
  841.79  320.75  902.03  319.56  966.69  321.57 1103.48  319.11 1284.13  326.72
 1322.99  327.21 1343.01  327.48  1355.2  327.77 1444.26  325.48 1592.08  330.21
  1644.8  329.18 1878.43  334.58 1878.46  334.58 1989.99  336.61 2010.01  343.11
 2024.27  349.05 2073.71  357.74 2126.72  369.58 2128.85  384.28
#Mann= 3 ,0,0
       0      .1       0  246.39   .0265       0 2126.72      .1       0
Bank Sta=246.39,2126.72
XS Rating Curve= 0 ,0
XS HTab Starting El and Incr=316.14,1, 100 
XS HTab Horizontal Distribution= 5 , 5 , 5 
Exp/Cntr=0.3,0.1

Type RM Length L Ch R = 1 ,109.9   ,2841.28,2879.69,3184.15
BEGIN DESCRIPTION:
950
END DESCRIPTION:
XS GIS Cut Line=5
1760404.456670665477346.565302161758590.550381665474757.02906299
1758569.461958295473878.234828121758569.368635615473874.34589648
1758568.640059615473843.98476399
Node Last Edited Time=Apr/25/2010 18:47:59
#Sta/Elev= 28 
  246.27  401.16   271.7  392.73  284.42  390.49  323.92  372.79  344.37  371.12
  365.58  364.56  380.16  357.77  553.84  329.49  595.17  325.64  595.24  325.63
  821.12  315.45  946.08  320.73 1014.15  319.31 1088.03  321.22 1204.06  319.14
 1385.15  326.54 1464.41  327.71 1538.64  325.81 1699.11  330.64 1751.46  329.62
 1984.19  334.69 1984.83   334.7  2097.8  336.36 2119.29  346.34 2183.01  357.74
  2218.2  366.49 2244.25   370.2 2282.91  383.93
#Mann= 3 ,0,0
  246.27      .1       0  365.58   .0265       0  2218.2      .1       0
Bank Sta=365.58,2218.2
XS Rating Curve= 0 ,0
XS HTab Starting El and Incr=315.95,1, 100 
XS HTab Horizontal Distribution= 5 , 5 , 5 
Exp/Cntr=0.3,0.1

Type RM Length L Ch R = 6 ,109.89  ,,,
BEGIN DESCRIPTION:
949
END DESCRIPTION:
Node Last Edited Time=Jan/05/2009 12:39:00
Lateral Weir Pos= 3 
Lateral Weir End=                ,                ,        ,2024            
Lateral Weir Distance=1300
Lateral Weir TW Multiple XS=0
Lateral Weir WD=30
Lateral Weir Coef=2
LW OverFlow Method 2D=0
LW OverFlow Use Velocity Into 2D=0
Lateral Weir WSCriteria=-1 
Lateral Weir Flap Gates= 0 
Lateral Weir Hagers EQN= 0 ,,,,,
Lateral Weir SS=0.05,0.05,
Lateral Weir Type= 0 
Lateral Weir Connection Pos and Dist= 0 ,
Lateral Weir SE= 37 
       0   385.610340.38   385.610375.09   385.6 10409.8   385.610444.51   385.6
10479.22   385.610513.93   385.610539.25   385.6 10571.6   385.610603.96   385.6
10636.31   385.610668.66   385.610701.02   385.610733.37   385.610765.72   385.6
10798.08   385.610830.43   385.610862.78   385.610890.06   385.610928.98   385.6
 10967.9   385.611015.16   385.611049.83   385.6 11084.5   385.611119.17   385.6
11153.84   385.6 11187.4   385.611220.82   385.611254.24   385.611287.66   385.6
11321.08   385.6 11354.5   385.611387.92   385.611421.34   385.611454.76   385.6
11488.18   385.611523.48   385.6
Lateral Weir Centerline= 0 
Lateral Weir HW RS Station=109.9   ,-1300
Lateral Weir TW RS Station=,0
LW Div RC= 0 ,False,,

Type RM Length L Ch R = 1 ,109.32  ,2731.75,2695.6,2437.96
BEGIN DESCRIPTION:
948.05
END DESCRIPTION:
XS GIS Cut Line=7
1762749.027288295475730.727369381762743.133611925475724.27351976
1762563.511268395475527.578702931761805.380238795474118.82692743
1761799.87613383 5473705.25395511761799.463573015473674.25454427
1761797.583757125473533.00704288
Node Last Edited Time=Apr/25/2010 18:47:59
#Sta/Elev= 26 
   -8.74  399.86      20  394.56   56.37  392.51   95.28  380.26  177.54  377.95
  205.87  362.88  218.52  357.72   257.9  349.75  329.44  336.59  479.38  316.46
  529.03  314.58  685.15  315.17  685.55  315.17  915.01  315.97  979.79  313.71
 1186.62  320.45 1187.37  320.47 1392.61  323.05 1504.59  320.25  1707.7  324.66
 1758.07  323.05  1851.9  341.13 1953.67  362.74 2050.04  370.54 2212.37  372.47
 2222.69   384.1
#Mann= 3 ,0,0
   -8.74      .1       0  205.87   .0265       0 1953.67      .1       0
Bank Sta=205.87,1953.67
XS Rating Curve= 0 ,0
XS HTab Starting El and Incr=314.21,1, 100 
XS HTab Horizontal Distribution= 5 , 5 , 5 
Exp/Cntr=0.3,0.1

Type RM Length L Ch R = 1 ,108.8   ,2699.57,2737.8,2773.77
BEGIN DESCRIPTION:
948
END DESCRIPTION:
XS GIS Cut Line=4
1765136.693673275474435.302239661765092.172549025474369.73981143
1763622.113185915472204.909899621763560.435255685472114.08211973
Node Last Edited Time=Apr/25/2010 18:47:59
#Sta/Elev= 34 
  -79.25   399.8      20  379.73  106.17  374.49  158.33  373.92  174.27  364.03
  182.34  360.38  183.91  358.04  336.26  327.77  399.97  327.98  445.21  325.77
  523.64  327.57  779.82  327.91  810.07  326.24  810.15  326.24 1105.62  321.91
 1133.76  319.71 1270.72  321.49 1310.24  318.45 1311.16  318.44 1457.87  317.18
 1552.35  321.53 1671.59  320.99 1797.08  323.38 1847.99   322.5  1924.8  324.79
 1976.96  322.83 2092.33  324.07 2273.17  357.71  2283.4   363.8 2394.12   370.5
 2501.51   370.5 2543.51  371.95 2634.28  380.33 2637.25  383.53
#Mann= 3 ,0,0
  -79.25      .1       0  174.27   .0265       0  2283.4      .1       0
Bank Sta=174.27,2283.4
XS Rating Curve= 0 ,0
XS HTab Starting El and Incr=317.68,1, 100 
XS HTab Horizontal Distribution= 5 , 5 , 5 
Exp/Cntr=0.3,0.1

Type RM Length L Ch R = 1 ,108.32  ,2827.03,2804.69,2834.35
BEGIN DESCRIPTION:
947
END DESCRIPTION:
XS GIS Cut Line=3
1767296.726539625472821.754062181765523.588313045470082.41840979
1765510.030708885470061.47315697
Node Last Edited Time=Apr/25/2010 18:47:59
#Sta/Elev= 33 
       0  383.03  103.01  399.86     120  392.05  123.65  391.69  143.46  379.75
  167.54  375.61  184.23  363.19  190.74  360.25  350.57  339.75  385.12  332.74
  434.46  326.28  615.15  327.65  663.12  329.63  772.19  327.21  819.54  329.18
  986.88   328.7  987.22   328.7 1149.58  326.17 1196.01  323.03 1365.29  323.35
 1487.53  321.55 1488.63  321.54 1572.71  320.44 1624.37  317.87 1953.69  319.18
 2095.49  316.96  2210.7  332.48 2457.15  357.76 2466.01   362.7 2497.08  366.86
 2554.88  370.04 2579.83  382.95 2579.83  384.68
#Mann= 3 ,0,0
       0      .1       0  184.23   .0265       0 2457.15      .1       0
Bank Sta=184.23,2457.15
XS Rating Curve= 0 ,0
XS HTab Starting El and Incr=317.46,1, 100 
XS HTab Horizontal Distribution= 5 , 5 , 5 
Exp/Cntr=0.3,0.1

Type RM Length L Ch R = 1 ,107.78  ,2377.55,2468.98,2640.05
BEGIN DESCRIPTION:
946
END DESCRIPTION:
XS GIS Cut Line=6
1769815.037119635471561.91209364 1768391.82507045469340.04842711
1767753.271885645468215.348905091767675.348579035468139.03523865
1767623.729758125468088.482693431767622.758032985468087.53104095
Node Last Edited Time=Apr/25/2010 18:47:59
#Sta/Elev= 38 
       0  388.93   25.21  394.51   36.52  386.76   73.03  384.34  109.55  381.77
  261.35  380.68  322.59  371.57  351.82  359.78  354.46  357.92  397.88  351.41
  429.89  331.61  655.33  324.76  714.05  324.36  820.32  326.91  980.71  326.99
 1040.45  329.86 1129.21  330.62 1130.33  330.63 1301.09  330.77 1408.52  325.89
 1575.84  325.76 1644.43  322.48 1645.34  322.44 1746.42  324.32 1798.55  323.71
 1837.52  320.58 1922.13  321.79 1978.11  318.02 1993.18  318.43 2120.17  310.23
 2230.45  309.83 2349.87  318.84 2648.82  354.51 2698.88  359.87 2781.38  368.01
 2863.77  368.98 2923.01  371.76 2924.37   384.1
#Mann= 3 ,0,0
       0      .1       0  322.59   .0265       0 2698.88      .1       0
Bank Sta=322.59,2698.88
XS Rating Curve= 0 ,0
XS HTab Starting El and Incr=310.33,1, 100 
XS HTab Horizontal Distribution= 5 , 5 , 5 
Exp/Cntr=0.3,0.1

Type RM Length L Ch R = 1 ,107.3   ,2341.24,2461.21,2607.42
BEGIN DESCRIPTION:
945.85
END DESCRIPTION:
XS GIS Cut Line=4
1772004.397152935470696.158410931771995.124295015470678.30264044
1770691.452361595468167.958251711770320.795808825467012.61404313
Node Last Edited Time=Apr/25/2010 18:47:59
#Sta/Elev= 45 
  -20.12  399.82       0  389.99    42.8  389.56   51.31  387.63   70.82  386.91
   103.3  379.43  125.96  371.05  194.35  359.09  239.43  353.51  331.68  337.14
  501.37  338.73  877.11  338.38  975.79   333.2  976.87  333.14 1217.31  330.41
 1312.87  330.79 1370.42  327.12 1419.74  328.19  1482.6  326.54 1482.93  326.51
 1538.39  321.43  1645.2  324.26 1697.82  320.58  1812.5   322.5 1865.96  319.96
 2120.04  316.68 2430.69  322.39 2670.81  342.38 2797.65  356.02 2838.04  356.47
 2849.25  360.28 2896.24  366.46 2964.25   369.7  3000.9   367.2 3114.04  369.79
 3371.58  369.11 3442.51  365.36 3517.59  360.13 3542.29  360.72 3559.09  363.85
 3650.42  361.54 3783.12  360.92 3945.29  364.59 4037.34  369.98 4042.02  385.55
#Mann= 3 ,0,0
  -20.12      .1       0  194.35   .0265       0 2849.25      .1       0
Bank Sta=194.35,2849.25
XS Rating Curve= 0 ,0
XS HTab Starting El and Incr=317.18,1, 100 
XS HTab Horizontal Distribution= 5 , 5 , 5 
Exp/Cntr=0.3,0.1

Type RM Length L Ch R = 6 ,107.295 ,,,
BEGIN DESCRIPTION:
945
END DESCRIPTION:
Node Last Edited Time=Jan/05/2009 13:45:20
Lateral Weir Pos= 3 
Lateral Weir End=                ,                ,        ,                
Lateral Weir Distance=1000
Lateral Weir TW Multiple XS=0
Lateral Weir WD=30
Lateral Weir Coef=2
LW OverFlow Method 2D=0
LW OverFlow Use Velocity Into 2D=0
Lateral Weir WSCriteria=-1 
Lateral Weir Flap Gates= 0 
Lateral Weir Hagers EQN= 0 ,,,,,
Lateral Weir SS=0.05,0.05,
Lateral Weir Type= 0 
Lateral Weir Connection Pos and Dist= 0 ,
Lateral Weir SE= 462 
       0     385    33.3384.9883   66.61384.9886   99.91384.9848  133.22 384.981
  166.52384.9772  199.83384.9734  233.13384.9696  266.44384.9658  299.74 384.962
  333.05384.9582  366.35384.9544  399.66384.9506  432.96384.9468  466.27 384.943
  485.61384.9392  518.42384.9354  551.23384.9316  584.04384.9278  616.84 384.924
  649.65384.9202  682.46384.9164  715.27384.9126  748.08384.9088  780.88 384.905
  813.69384.9012   832.6384.8974  865.57384.8936  898.54384.8898  931.51 384.886
  964.47384.8822  997.44384.8784 1030.41384.8746 1063.38384.8708 1096.35 384.867
 1129.31384.8632 1162.28384.8593 1195.25384.8556 1228.22384.8517 1261.19 384.848
 1294.15384.8441 1327.12384.8404 1360.09384.8365 1393.06384.8328 1440.93384.8289
 1473.68384.8251 1506.44384.8214 1539.19384.8175 1571.95384.8138  1604.7384.8099
 1637.45384.8062 1670.21384.8023 1702.96384.7985 1735.72384.7947 1768.47384.7909
 1801.23384.7871 1833.98384.7833 1866.74384.7795 1899.49384.7757 1932.24384.7719