Geom Title=Davis Full System w/ Pump
Program Version=6.60
Viewing Rectangle= 6624412.47 , 6644448.96 , 1973812.81 , 1957071.61 

Storage Area=area2           ,6633263.4873402,1964451.2362496
Storage Area Surface Line= 57 
6638750.365109751963574.33322598                
6638298.742610691963625.26898504                
6637931.599321411963182.01062358                
6637555.501317751962698.45604745                
6636663.242624431961884.54552865                
6636349.797018421961488.01692485                
6635952.73223519 1961162.5898566                
6635531.481477971960647.42284223                
6633982.192409281960316.72272082                
6633023.293854061960150.64571468                
6632108.168722681960003.24300895                
6631721.70371079 1960718.8239351                
6630653.337676311960882.39031537                
6628908.301652561960899.94280212                
6628808.363082161961274.50754509                
6628490.528180361962049.23011824                
6628341.543070141966667.76853507                
6628394.26862214 1968160.4891354                
6628391.204773551968395.99581363                
6628372.231549831968562.37782757                
6628436.562156121968647.32936916                
6628603.066572131968694.23607722                
6628884.614479021968655.13515876                
6629473.829907821968723.76305611                
6629505.751441411968463.27950187                
6629514.564223561968195.95844332                
6629649.693549861967931.57497882                
6629655.568737961967743.56895962                
6629593.879262911967496.81105942                
6629646.396086031967202.36964172                
 6629884.63037581967074.80707059                
6630645.467234751967080.68225869                
6631317.793458161967053.22844763                
6631400.230284781966898.54797301                
6631666.185301651966898.54797301                
6633493.137656141966896.64539451                
6633628.610956451966894.51835155                
 6633720.39704941966653.50667275                
6633789.669277321966620.84932076                
 6634031.78201871966612.38035604                
 6634490.0466905 1966691.6953954                
6634813.098652391966775.79524669                
6634958.333813371966144.11118775                
 6635723.07531271966137.35324521                
6636641.829007351966197.79756722                
6637347.012764211966403.30826208                
6638574.763463941966844.91257701                
6639329.586526351966794.18154445                
6639357.793876621966217.94567456                
 6639386.00122691965907.66482154                
6639406.149334241965553.05813238                
6639684.193215511965295.16235844                
6639627.778514961965033.23696304                
6639676.133972581964694.74875975                
6639571.363814421964340.14207058                
6639514.949113871963622.86944932                
6638750.365109751963574.33322598                
Storage Area Type= 1 
Storage Area Area=
Storage Area Min Elev=
Storage Area Is2D=-1
Storage Area Point Generation Data=0,0,150,150
Storage Area 2D Points= 2705 
6629166.543070141968648.763056116629316.543070141968648.76305611
6628566.543070141968498.763056116628716.543070141968498.76305611
6628866.543070141968498.763056116629016.543070141968498.76305611
6629166.543070141968498.763056116629316.543070141968498.76305611
6628566.543070141968348.763056116628716.543070141968348.76305611
6628866.543070141968348.763056116629016.543070141968348.76305611
6629166.543070141968348.763056116629316.543070141968348.76305611
6629466.543070141968348.763056116628566.543070141968198.76305611
6628716.543070141968198.763056116628866.543070141968198.76305611
6629016.543070141968198.763056116629166.543070141968198.76305611
6629316.543070141968198.763056116629466.543070141968198.76305611
6628566.543070141968048.763056116628716.543070141968048.76305611
6628866.543070141968048.763056116629016.543070141968048.76305611
6629166.543070141968048.763056116629316.543070141968048.76305611
6629466.543070141968048.763056116628566.543070141967898.76305611
6628716.543070141967898.763056116628866.543070141967898.76305611
6629016.543070141967898.763056116629166.543070141967898.76305611
6629316.543070141967898.763056116629466.543070141967898.76305611
6628566.543070141967748.763056116628716.543070141967748.76305611
6628866.543070141967748.763056116629016.543070141967748.76305611
6629166.543070141967748.763056116629316.543070141967748.76305611
6629466.543070141967748.763056116629616.543070141967748.76305611
6628416.543070141967598.763056116628566.543070141967598.76305611
6628716.543070141967598.763056116628866.543070141967598.76305611
6629016.543070141967598.763056116629166.543070141967598.76305611
6629316.543070141967598.763056116629466.543070141967598.76305611
6628416.543070141967448.763056116628566.543070141967448.76305611
6628716.543070141967448.763056116628866.543070141967448.76305611
6629016.543070141967448.763056116629166.543070141967448.76305611
6629316.543070141967448.763056116629466.543070141967448.76305611
6628416.543070141967298.763056116628566.543070141967298.76305611
6628716.543070141967298.763056116628866.543070141967298.76305611
6629016.543070141967298.763056116629166.543070141967298.76305611
6629316.543070141967298.763056116629466.543070141967298.76305611
6628416.543070141967148.763056116628566.543070141967148.76305611
6628716.543070141967148.763056116628866.543070141967148.76305611
6629016.543070141967148.763056116629166.543070141967148.76305611
6629316.543070141967148.763056116629466.543070141967148.76305611
6629616.543070141967148.763056116628416.543070141966998.76305611
6628566.543070141966998.763056116628716.543070141966998.76305611
6628866.543070141966998.763056116629016.543070141966998.76305611
6629166.543070141966998.763056116629316.543070141966998.76305611
6629466.543070141966998.763056116629616.543070141966998.76305611
6629766.543070141966998.763056116629916.543070141966998.76305611
6630066.543070141966998.763056116630216.543070141966998.76305611
6630366.543070141966998.763056116630516.543070141966998.76305611
6630666.543070141966998.763056116630816.543070141966998.76305611
6630966.543070141966998.763056116631116.543070141966998.76305611
6631266.543070141966998.763056116628416.543070141966848.76305611
6628566.543070141966848.763056116628716.543070141966848.76305611
6628866.543070141966848.763056116629016.543070141966848.76305611
6629166.543070141966848.763056116629316.543070141966848.76305611
6629466.543070141966848.763056116629616.543070141966848.76305611
6629766.543070141966848.763056116629916.543070141966848.76305611
6630066.543070141966848.763056116630216.543070141966848.76305611
6630366.543070141966848.763056116630516.543070141966848.76305611
6630666.543070141966848.763056116630816.543070141966848.76305611
6630966.543070141966848.763056116631116.543070141966848.76305611
6631266.543070141966848.763056116631416.543070141966848.76305611
6631566.543070141966848.763056116631716.543070141966848.76305611
6631866.543070141966848.763056116632016.543070141966848.76305611
6632166.543070141966848.763056116632316.543070141966848.76305611
6632466.543070141966848.763056116632616.543070141966848.76305611
6632766.543070141966848.763056116632916.543070141966848.76305611
6633066.543070141966848.763056116633216.543070141966848.76305611
6633366.543070141966848.763056116633516.543070141966848.76305611
6628416.543070141966698.763056116628566.543070141966698.76305611
6628716.543070141966698.763056116628866.543070141966698.76305611
6629016.543070141966698.763056116629166.543070141966698.76305611
6629316.543070141966698.763056116629466.543070141966698.76305611
6629616.543070141966698.763056116629766.543070141966698.76305611
6629916.543070141966698.763056116630066.543070141966698.76305611
6630216.543070141966698.763056116630366.543070141966698.76305611
6630516.543070141966698.763056116630666.543070141966698.76305611
6630816.543070141966698.763056116630966.543070141966698.76305611
6631116.543070141966698.763056116631266.543070141966698.76305611
6631416.543070141966698.763056116631566.543070141966698.76305611
6631716.543070141966698.763056116631866.543070141966698.76305611
6632016.543070141966698.763056116632166.543070141966698.76305611
6632316.543070141966698.763056116632466.543070141966698.76305611
6632616.543070141966698.763056116632766.543070141966698.76305611
6632916.543070141966698.763056116633066.543070141966698.76305611
6633216.543070141966698.763056116633366.543070141966698.76305611
6633516.543070141966698.763056116634716.543070141966698.76305611
6638316.543070141966698.763056116638466.543070141966698.76305611
6638616.543070141966698.763056116638766.543070141966698.76305611
6638916.543070141966698.763056116639066.543070141966698.76305611
6639216.543070141966698.763056116628416.543070141966548.76305611
6628566.543070141966548.763056116628716.543070141966548.76305611
6628866.543070141966548.763056116629016.543070141966548.76305611
6629166.543070141966548.763056116629316.543070141966548.76305611
6629466.543070141966548.763056116629616.543070141966548.76305611
6629766.543070141966548.763056116629916.543070141966548.76305611
6630066.543070141966548.763056116630216.543070141966548.76305611
6630366.543070141966548.763056116630516.543070141966548.76305611
6630666.543070141966548.763056116630816.543070141966548.76305611
6630966.543070141966548.763056116631116.543070141966548.76305611
6631266.543070141966548.763056116631416.543070141966548.76305611
6631566.543070141966548.763056116631716.543070141966548.76305611
6631866.543070141966548.763056116632016.543070141966548.76305611
6632166.543070141966548.763056116632316.543070141966548.76305611
6632466.543070141966548.763056116632616.543070141966548.76305611
6632766.543070141966548.763056116632916.543070141966548.76305611
6633066.543070141966548.763056116633216.543070141966548.76305611
6633366.543070141966548.763056116633516.543070141966548.76305611
6633666.543070141966548.763056116633816.543070141966548.76305611
6633966.543070141966548.763056116634116.543070141966548.76305611
6634266.543070141966548.763056116634416.543070141966548.76305611
6634566.543070141966548.763056116634716.543070141966548.76305611
6637866.543070141966548.763056116638016.543070141966548.76305611
6638166.543070141966548.763056116638316.543070141966548.76305611
6638466.543070141966548.763056116638616.543070141966548.76305611
6638766.543070141966548.763056116638916.543070141966548.76305611
6639066.543070141966548.763056116639216.543070141966548.76305611
6628416.543070141966398.763056116628566.543070141966398.76305611
6628716.543070141966398.763056116628866.543070141966398.76305611
6629016.543070141966398.763056116629166.543070141966398.76305611
6629316.543070141966398.763056116629466.543070141966398.76305611
6629616.543070141966398.763056116629766.543070141966398.76305611
6629916.543070141966398.763056116630066.543070141966398.76305611
6630216.543070141966398.763056116630366.543070141966398.76305611
6630516.543070141966398.763056116630666.543070141966398.76305611
6630816.543070141966398.763056116630966.543070141966398.76305611
6631116.543070141966398.763056116631266.543070141966398.76305611
6631416.543070141966398.763056116631566.543070141966398.76305611
6631716.543070141966398.763056116631866.543070141966398.76305611
6632016.543070141966398.763056116632166.543070141966398.76305611
6632316.543070141966398.763056116632466.543070141966398.76305611
6632616.543070141966398.763056116632766.543070141966398.76305611
6632916.543070141966398.763056116633066.543070141966398.76305611
6633216.543070141966398.763056116633366.543070141966398.76305611
6633516.543070141966398.763056116633666.543070141966398.76305611
6633816.543070141966398.763056116633966.543070141966398.76305611
6634116.543070141966398.763056116634266.543070141966398.76305611
6634416.543070141966398.763056116634566.543070141966398.76305611
6634716.543070141966398.763056116637566.543070141966398.76305611
6637716.543070141966398.763056116637866.543070141966398.76305611
6638016.543070141966398.763056116638166.543070141966398.76305611
6638316.543070141966398.763056116638466.543070141966398.76305611
6638616.543070141966398.763056116638766.543070141966398.76305611
6638916.543070141966398.763056116639066.543070141966398.76305611
6639216.543070141966398.763056116628416.543070141966248.76305611
6628566.543070141966248.763056116628716.543070141966248.76305611
6628866.543070141966248.763056116629016.543070141966248.76305611
6629166.543070141966248.763056116629316.543070141966248.76305611
6629466.543070141966248.763056116629616.543070141966248.76305611
6629766.543070141966248.763056116629916.543070141966248.76305611
6630066.543070141966248.763056116630216.543070141966248.76305611
6630366.543070141966248.763056116630516.543070141966248.76305611
6630666.543070141966248.763056116630816.543070141966248.76305611
6630966.543070141966248.763056116631116.543070141966248.76305611
6631266.543070141966248.763056116631416.543070141966248.76305611
6631566.543070141966248.763056116631716.543070141966248.76305611
6631866.543070141966248.763056116632016.543070141966248.76305611
6632166.543070141966248.763056116632316.543070141966248.76305611
6632466.543070141966248.763056116632616.543070141966248.76305611
6632766.543070141966248.763056116632916.543070141966248.76305611
6633066.543070141966248.763056116633216.543070141966248.76305611
6633366.543070141966248.763056116633516.543070141966248.76305611
6633666.543070141966248.763056116633816.543070141966248.76305611
6633966.543070141966248.763056116634116.543070141966248.76305611
6634266.543070141966248.763056116634416.543070141966248.76305611
6634566.543070141966248.763056116634716.543070141966248.76305611
6634866.543070141966248.763056116636966.543070141966248.76305611
6637116.543070141966248.763056116637266.543070141966248.76305611
6637416.543070141966248.763056116637566.543070141966248.76305611
6637716.543070141966248.763056116637866.543070141966248.76305611
6638016.543070141966248.763056116638166.543070141966248.76305611
6638316.543070141966248.763056116638466.543070141966248.76305611
6638616.543070141966248.763056116638766.543070141966248.76305611
6638916.543070141966248.763056116639066.543070141966248.76305611
6639216.543070141966248.763056116628416.543070141966098.76305611
6628566.543070141966098.763056116628716.543070141966098.76305611
6628866.543070141966098.763056116629016.543070141966098.76305611
6629166.543070141966098.763056116629316.543070141966098.76305611
6629466.543070141966098.763056116629616.543070141966098.76305611
6629766.543070141966098.763056116629916.543070141966098.76305611
6630066.543070141966098.763056116630216.543070141966098.76305611
6630366.543070141966098.763056116630516.543070141966098.76305611
6630666.543070141966098.763056116630816.543070141966098.76305611
6630966.543070141966098.763056116631116.543070141966098.76305611
6631266.543070141966098.763056116631416.543070141966098.76305611
6631566.543070141966098.763056116631716.543070141966098.76305611
6631866.543070141966098.763056116632016.543070141966098.76305611
6632166.543070141966098.763056116632316.543070141966098.76305611
6632466.543070141966098.763056116632616.543070141966098.76305611
6632766.543070141966098.763056116632916.543070141966098.76305611
6633066.543070141966098.763056116633216.543070141966098.76305611
6633366.543070141966098.763056116633516.543070141966098.76305611
6633666.543070141966098.763056116633816.543070141966098.76305611
6633966.543070141966098.763056116634116.543070141966098.76305611
6634266.543070141966098.763056116634416.543070141966098.76305611
6634566.543070141966098.763056116634716.543070141966098.76305611
6634866.543070141966098.763056116635016.543070141966098.76305611
6635166.543070141966098.763056116635316.543070141966098.76305611
6635466.543070141966098.763056116635616.543070141966098.76305611
6635766.543070141966098.763056116635916.543070141966098.76305611
6636066.543070141966098.763056116636216.543070141966098.76305611
6636366.543070141966098.763056116636516.543070141966098.76305611
6636666.543070141966098.763056116636816.543070141966098.76305611
6636966.543070141966098.763056116637116.543070141966098.76305611
6637266.543070141966098.763056116637416.543070141966098.76305611
6637566.543070141966098.763056116637716.543070141966098.76305611
6637866.543070141966098.763056116638016.543070141966098.76305611
6638166.543070141966098.763056116638316.543070141966098.76305611
6638466.543070141966098.763056116638616.543070141966098.76305611
6638766.543070141966098.763056116638916.543070141966098.76305611
6639066.543070141966098.763056116639216.543070141966098.76305611
6628416.543070141965948.763056116628566.543070141965948.76305611
6628716.543070141965948.763056116628866.543070141965948.76305611
6629016.543070141965948.763056116629166.543070141965948.76305611
6629316.543070141965948.763056116629466.543070141965948.76305611
6629616.543070141965948.763056116629766.543070141965948.76305611
6629916.543070141965948.763056116630066.543070141965948.76305611
6630216.543070141965948.763056116630366.543070141965948.76305611
6630516.543070141965948.763056116630666.543070141965948.76305611
6630816.543070141965948.763056116630966.543070141965948.76305611
6631116.543070141965948.763056116631266.543070141965948.76305611
6631416.543070141965948.763056116631566.543070141965948.76305611
6631716.543070141965948.763056116631866.543070141965948.76305611
6632016.543070141965948.763056116632166.543070141965948.76305611
6632316.543070141965948.763056116632466.543070141965948.76305611
6632616.543070141965948.763056116632766.543070141965948.76305611
6632916.543070141965948.763056116633066.543070141965948.76305611
6633216.543070141965948.763056116633366.543070141965948.76305611
6633516.543070141965948.763056116633666.543070141965948.76305611
6633816.543070141965948.763056116633966.543070141965948.76305611
6634116.543070141965948.763056116634266.543070141965948.76305611
6634416.543070141965948.763056116634566.543070141965948.76305611
6634716.543070141965948.763056116634866.543070141965948.76305611
6635016.543070141965948.763056116635166.543070141965948.76305611
6635316.543070141965948.763056116635466.543070141965948.76305611
6635616.543070141965948.763056116635766.543070141965948.76305611
6635916.543070141965948.763056116636066.543070141965948.76305611
6636216.543070141965948.763056116636366.543070141965948.76305611
6636516.543070141965948.763056116636666.543070141965948.76305611
6636816.543070141965948.763056116636966.543070141965948.76305611
6637116.543070141965948.763056116637266.543070141965948.76305611
6637416.543070141965948.763056116637566.543070141965948.76305611
6637716.543070141965948.763056116637866.543070141965948.76305611
6638016.543070141965948.763056116638166.543070141965948.76305611
6638316.543070141965948.763056116638466.543070141965948.76305611
6638616.543070141965948.763056116638766.543070141965948.76305611
6638916.543070141965948.763056116639066.543070141965948.76305611
6639216.543070141965948.763056116628416.543070141965798.76305611
6628566.543070141965798.763056116628716.543070141965798.76305611
6628866.543070141965798.763056116629016.543070141965798.76305611
6629166.543070141965798.763056116629316.543070141965798.76305611
6629466.543070141965798.763056116629616.543070141965798.76305611
6629766.543070141965798.763056116629916.543070141965798.76305611
6630066.543070141965798.763056116630216.543070141965798.76305611
6630366.543070141965798.763056116630516.543070141965798.76305611
6630666.543070141965798.763056116630816.543070141965798.76305611
6630966.543070141965798.763056116631116.543070141965798.76305611
6631266.543070141965798.763056116631416.543070141965798.76305611
6631566.543070141965798.763056116631716.543070141965798.76305611
6631866.543070141965798.763056116632016.543070141965798.76305611
6632166.543070141965798.763056116632316.543070141965798.76305611
6632466.543070141965798.763056116632616.543070141965798.76305611
6632766.543070141965798.763056116632916.543070141965798.76305611
6633066.543070141965798.763056116633216.543070141965798.76305611
6633366.543070141965798.763056116633516.543070141965798.76305611
6633666.543070141965798.763056116633816.543070141965798.76305611
6633966.543070141965798.763056116634116.543070141965798.76305611
6634266.543070141965798.763056116634416.543070141965798.76305611
6634566.543070141965798.763056116634716.543070141965798.76305611
6634866.543070141965798.763056116635016.543070141965798.76305611
6635166.543070141965798.763056116635316.543070141965798.76305611
6635466.543070141965798.763056116635616.543070141965798.76305611
6635766.543070141965798.763056116635916.543070141965798.76305611
6636066.543070141965798.763056116636216.543070141965798.76305611
6636366.543070141965798.763056116636516.543070141965798.76305611
6636666.543070141965798.763056116636816.543070141965798.76305611
6636966.543070141965798.763056116637116.543070141965798.76305611
6637266.543070141965798.763056116637416.543070141965798.76305611
6637566.543070141965798.763056116637716.543070141965798.76305611
6637866.543070141965798.763056116638016.543070141965798.76305611
6638166.543070141965798.763056116638316.543070141965798.76305611
6638466.543070141965798.763056116638616.543070141965798.76305611
6638766.543070141965798.763056116638916.543070141965798.76305611
6639066.543070141965798.763056116639216.543070141965798.76305611
6628416.543070141965648.763056116628566.543070141965648.76305611
6628716.543070141965648.763056116628866.543070141965648.76305611
6629016.543070141965648.763056116629166.543070141965648.76305611
6629316.543070141965648.763056116629466.543070141965648.76305611
6629616.543070141965648.763056116629766.543070141965648.76305611
6629916.543070141965648.763056116630066.543070141965648.76305611
6630216.543070141965648.763056116630366.543070141965648.76305611
6630516.543070141965648.763056116630666.543070141965648.76305611
6630816.543070141965648.763056116630966.543070141965648.76305611
6631116.543070141965648.763056116631266.543070141965648.76305611
6631416.543070141965648.763056116631566.543070141965648.76305611
6631716.543070141965648.763056116631866.543070141965648.76305611
6632016.543070141965648.763056116632166.543070141965648.76305611
6632316.543070141965648.763056116632466.543070141965648.76305611
6632616.543070141965648.763056116632766.543070141965648.76305611
6632916.543070141965648.763056116633066.543070141965648.76305611
6633216.543070141965648.763056116633366.543070141965648.76305611
6633516.543070141965648.763056116633666.543070141965648.76305611
6633816.543070141965648.763056116633966.543070141965648.76305611
6634116.543070141965648.763056116634266.543070141965648.76305611
6634416.543070141965648.763056116634566.543070141965648.76305611
6634716.543070141965648.763056116634866.543070141965648.76305611
6635016.543070141965648.763056116635166.543070141965648.76305611
6635316.543070141965648.763056116635466.543070141965648.76305611
6635616.543070141965648.763056116635766.543070141965648.76305611
6635916.543070141965648.763056116636066.543070141965648.76305611
6636216.543070141965648.763056116636366.543070141965648.76305611
6636516.543070141965648.763056116636666.543070141965648.76305611
6636816.543070141965648.763056116636966.543070141965648.76305611
6637116.543070141965648.763056116637266.543070141965648.76305611
6637416.543070141965648.763056116637566.543070141965648.76305611
6637716.543070141965648.763056116637866.543070141965648.76305611
6638016.543070141965648.763056116638166.543070141965648.76305611
6638316.543070141965648.763056116638466.543070141965648.76305611
6638616.543070141965648.763056116638766.543070141965648.76305611
6638916.543070141965648.763056116639066.543070141965648.76305611
6639216.543070141965648.763056116628566.543070141965498.76305611
6628716.543070141965498.763056116628866.543070141965498.76305611
6629016.543070141965498.763056116629166.543070141965498.76305611
6629316.543070141965498.763056116629466.543070141965498.76305611
6629616.543070141965498.763056116629766.543070141965498.76305611
6629916.543070141965498.763056116630066.543070141965498.76305611
6630216.543070141965498.763056116630366.543070141965498.76305611
6630516.543070141965498.763056116630666.543070141965498.76305611
6630816.543070141965498.763056116630966.543070141965498.76305611
6631116.543070141965498.763056116631266.543070141965498.76305611
6631416.543070141965498.763056116631566.543070141965498.76305611
6631716.543070141965498.763056116631866.543070141965498.76305611
6632016.543070141965498.763056116632166.543070141965498.76305611
6632316.543070141965498.763056116632466.543070141965498.76305611
6632616.543070141965498.763056116632766.543070141965498.76305611
6632916.543070141965498.763056116633066.543070141965498.76305611
6633216.543070141965498.763056116633366.543070141965498.76305611
6633516.543070141965498.763056116633666.543070141965498.76305611
6633816.543070141965498.763056116633966.543070141965498.76305611
6634116.543070141965498.763056116634266.543070141965498.76305611
6634416.543070141965498.763056116634566.543070141965498.76305611
6634716.543070141965498.763056116634866.543070141965498.76305611
6635016.543070141965498.763056116635166.543070141965498.76305611
6635316.543070141965498.763056116635466.543070141965498.76305611
6635616.543070141965498.763056116635766.543070141965498.76305611
6635916.543070141965498.763056116636066.543070141965498.76305611
6636216.543070141965498.763056116636366.543070141965498.76305611
6636516.543070141965498.763056116636666.543070141965498.76305611
6636816.543070141965498.763056116636966.543070141965498.76305611
6637116.543070141965498.763056116637266.543070141965498.76305611
6637416.543070141965498.763056116637566.543070141965498.76305611
6637716.543070141965498.763056116637866.543070141965498.76305611
6638016.543070141965498.763056116638166.543070141965498.76305611
6638316.543070141965498.763056116638466.543070141965498.76305611
6638616.543070141965498.763056116638766.543070141965498.76305611
6638916.543070141965498.763056116639066.543070141965498.76305611
6639216.543070141965498.763056116639366.543070141965498.76305611
6628566.543070141965348.763056116628716.543070141965348.76305611
6628866.543070141965348.763056116629016.543070141965348.76305611
6629166.543070141965348.763056116629316.543070141965348.76305611
6629466.543070141965348.763056116629616.543070141965348.76305611
6629766.543070141965348.763056116629916.543070141965348.76305611
6630066.543070141965348.763056116630216.543070141965348.76305611
6630366.543070141965348.763056116630516.543070141965348.76305611
6630666.543070141965348.763056116630816.543070141965348.76305611
6630966.543070141965348.763056116631116.543070141965348.76305611
6631266.543070141965348.763056116631416.543070141965348.76305611
6631566.543070141965348.763056116631716.543070141965348.76305611
6631866.543070141965348.763056116632016.543070141965348.76305611
6632166.543070141965348.763056116632316.543070141965348.76305611
6632466.543070141965348.763056116632616.543070141965348.76305611
6632766.543070141965348.763056116632916.543070141965348.76305611
6633066.543070141965348.763056116633216.543070141965348.76305611
6633366.543070141965348.763056116633516.543070141965348.76305611
6633666.543070141965348.763056116633816.543070141965348.76305611
6633966.543070141965348.763056116634116.543070141965348.76305611
6634266.543070141965348.763056116634416.543070141965348.76305611
6634566.543070141965348.763056116634716.543070141965348.76305611
6634866.543070141965348.763056116635016.543070141965348.76305611
6635166.543070141965348.763056116635316.543070141965348.76305611
6635466.543070141965348.763056116635616.543070141965348.76305611
6635766.543070141965348.763056116635916.543070141965348.76305611
6636066.543070141965348.763056116636216.543070141965348.76305611
6636366.543070141965348.763056116636516.543070141965348.76305611
6636666.543070141965348.763056116636816.543070141965348.76305611
6636966.543070141965348.763056116637116.543070141965348.76305611
6637266.543070141965348.763056116637416.543070141965348.76305611
6637566.543070141965348.763056116637716.543070141965348.76305611
6637866.543070141965348.763056116638016.543070141965348.76305611
6638166.543070141965348.763056116638316.543070141965348.76305611
6638466.543070141965348.763056116638616.543070141965348.76305611
6638766.543070141965348.763056116638916.543070141965348.76305611
6639066.543070141965348.763056116639216.543070141965348.76305611
6639366.543070141965348.763056116639516.543070141965348.76305611
6628566.543070141965198.763056116628716.543070141965198.76305611
6628866.543070141965198.763056116629016.543070141965198.76305611
6629166.543070141965198.763056116629316.543070141965198.76305611
6629466.543070141965198.763056116629616.543070141965198.76305611
6629766.543070141965198.763056116629916.543070141965198.76305611
6630066.543070141965198.763056116630216.543070141965198.76305611
6630366.543070141965198.763056116630516.543070141965198.76305611
6630666.543070141965198.763056116630816.543070141965198.76305611
6630966.543070141965198.763056116631116.543070141965198.76305611
6631266.543070141965198.763056116631416.543070141965198.76305611
6631566.543070141965198.763056116631716.543070141965198.76305611
6631866.543070141965198.763056116632016.543070141965198.76305611
6632166.543070141965198.763056116632316.543070141965198.76305611
6632466.543070141965198.763056116632616.543070141965198.76305611