Geom Title=Rect chan S=10ft/mi Sharp Crested
Program Version=5.00
Viewing Rectangle=-0.1087 , 1.1397 , 0.946 , 0.0482 

River Reach=Brunner         ,1               
Reach XY= 2 
-0.05813953488370.879844961240311.089147286821710.11434108527132
Rch Text X Y=0.2286822,0.688469
Reverse River Text= 0 

Type RM Length L Ch R = 1 ,1000    ,50,50,50
BEGIN DESCRIPTION:
Downstream Boundary Section
END DESCRIPTION:
XS GIS Cut Line=5
-0.01986434108520.93720930232558-0.01986434108520.93720930232558
-0.05813953488370.87984496124031-0.09641472868210.82248062015504
-0.09641472868210.82248062015504
Node Last Edited Time=Apr/16/2007 15:19:47
#Sta/Elev= 4 
       0   21.89       0    1.89     100    1.89     100   21.89
#Mann= 3 , 0 , 0 
       0    .035       0       0    .035       0     100    .035       0
Bank Sta=0,100
XS Rating Curve= 0 ,0
XS HTab Horizontal Distribution= 5 , 5 , 5 
Exp/Cntr=0.3,0.1

Type RM Length L Ch R = 1 ,950.*   ,50,50,50
XS GIS Cut Line=5
0.037500000000020.898934108527130.037500000000020.89893410852713
-0.00077519379840.84156976744186-0.03905038759680.78420542635659
-0.03905038759680.78420542635659
Node Last Edited Time=Apr/16/2007 15:19:56
#Sta/Elev= 4 
       0    21.8       0     1.8     100     1.8     100    21.8
#Mann= 3 , 0 , 0 
       0    .035       0       0    .035       0     100    .035       0
Bank Sta=0,100
XS Rating Curve= 0 ,0
XS HTab Horizontal Distribution= 5 , 5 , 5 
Exp/Cntr=0.3,0.1

Type RM Length L Ch R = 1 ,900.*   ,50,50,50
XS GIS Cut Line=5
0.094864341085290.860658914728680.094864341085290.86065891472868
0.056589147286840.803294573643410.018313953488390.74593023255814
0.018313953488390.74593023255814
Node Last Edited Time=Apr/16/2007 15:19:56
#Sta/Elev= 4 
       0    21.7       0     1.7     100     1.7     100    21.7
#Mann= 3 , 0 , 0 
       0    .035       0       0    .035       0     100    .035       0
Bank Sta=0,100
XS Rating Curve= 0 ,0
XS HTab Horizontal Distribution= 5 , 5 , 5 
Exp/Cntr=0.3,0.1

Type RM Length L Ch R = 1 ,850.*   ,50,50,50
XS GIS Cut Line=5
0.152228682170560.822383720930230.152228682170560.82238372093023
0.113953488372110.765019379844960.075678294573660.70765503875969
0.075678294573660.70765503875969
Node Last Edited Time=Apr/16/2007 15:19:56
#Sta/Elev= 4 
       0   21.61       0    1.61     100    1.61     100   21.61
#Mann= 3 , 0 , 0 
       0    .035       0       0    .035       0     100    .035       0
Bank Sta=0,100
XS Rating Curve= 0 ,0
XS HTab Horizontal Distribution= 5 , 5 , 5 
Exp/Cntr=0.3,0.1

Type RM Length L Ch R = 1 ,800.*   ,50,50,50
XS GIS Cut Line=5
0.209593023255830.784108527131780.209593023255830.78410852713178
0.171317829457380.726744186046510.133042635658930.66937984496124
0.133042635658930.66937984496124
Node Last Edited Time=Apr/16/2007 15:19:56
#Sta/Elev= 4 
       0   21.51       0    1.51     100    1.51     100   21.51
#Mann= 3 , 0 , 0 
       0    .035       0       0    .035       0     100    .035       0
Bank Sta=0,100
XS Rating Curve= 0 ,0
XS HTab Horizontal Distribution= 5 , 5 , 5 
Exp/Cntr=0.3,0.1

Type RM Length L Ch R = 1 ,750.*   ,50,50,50
XS GIS Cut Line=5
 0.26695736434110.74583333333333 0.26695736434110.74583333333333
0.228682170542650.68846899224806 0.19040697674420.63110465116279
 0.19040697674420.63110465116279
Node Last Edited Time=Apr/16/2007 15:19:56
#Sta/Elev= 4 
       0   21.42       0    1.42     100    1.42     100   21.42
#Mann= 3 , 0 , 0 
       0    .035       0       0    .035       0     100    .035       0
Bank Sta=0,100
XS Rating Curve= 0 ,0
XS HTab Horizontal Distribution= 5 , 5 , 5 
Exp/Cntr=0.3,0.1

Type RM Length L Ch R = 1 ,700.*   ,50,50,50
XS GIS Cut Line=5
0.324321705426370.707558139534880.324321705426370.70755813953488
0.286046511627920.650193798449610.247771317829470.59282945736434
0.247771317829470.59282945736434
Node Last Edited Time=Apr/16/2007 15:19:56
#Sta/Elev= 4 
       0   21.32       0    1.32     100    1.32     100   21.32
#Mann= 3 , 0 , 0 
       0    .035       0       0    .035       0     100    .035       0
Bank Sta=0,100
XS Rating Curve= 0 ,0
XS HTab Horizontal Distribution= 5 , 5 , 5 
Exp/Cntr=0.3,0.1

Type RM Length L Ch R = 1 ,650.*   ,50,50,50
XS GIS Cut Line=5
0.381686046511640.669282945736430.381686046511640.66928294573643
0.343410852713190.611918604651160.305135658914740.55455426356589
0.305135658914740.55455426356589
Node Last Edited Time=Apr/16/2007 15:19:56
#Sta/Elev= 4 
       0   21.23       0    1.23     100    1.23     100   21.23
#Mann= 3 , 0 , 0 
       0    .035       0       0    .035       0     100    .035       0
Bank Sta=0,100
XS Rating Curve= 0 ,0
XS HTab Horizontal Distribution= 5 , 5 , 5 
Exp/Cntr=0.3,0.1

Type RM Length L Ch R = 1 ,600.*   ,50,50,50
XS GIS Cut Line=5
0.439050387596910.631007751937980.439050387596910.63100775193798
0.400775193798460.573643410852710.362500000000020.51627906976744
0.362500000000020.51627906976744
Node Last Edited Time=Apr/16/2007 15:19:56
#Sta/Elev= 4 
       0   21.13       0    1.13     100    1.13     100   21.13
#Mann= 3 , 0 , 0 
       0    .035       0       0    .035       0     100    .035       0
Bank Sta=0,100
XS Rating Curve= 0 ,0
XS HTab Horizontal Distribution= 5 , 5 , 5 
Exp/Cntr=0.3,0.1

Type RM Length L Ch R = 6 ,599     ,,,
Node Last Edited Time=Apr/16/2007 16:21:53
Lateral Weir Pos= 2 
Lateral Weir End=                ,                ,        ,                
Lateral Weir Distance=0
Lateral Weir TW Multiple XS=0
Lateral Weir WD=10
Lateral Weir Coef=2
Lateral Weir Is Sharp=-1 
Lateral Weir WSCriteria=-1 
Lateral Weir Flap Gates= 0 
Lateral Weir Hagers EQN= 1 ,2.2,10,0.00189,,
Lateral Weir SS=0.05,0.05,
Lateral Weir Type= 0 
Lateral Weir Connection Pos and Dist= 0 ,
Lateral Weir SE= 2 
       0   11.13     100   10.94
Lateral Weir Centerline= 0 
LW Div RC= 0 ,False,

Type RM Length L Ch R = 1 ,550.*   ,50,50,50
XS GIS Cut Line=5
0.496414728682180.592732558139540.496414728682180.59273255813954
0.458139534883730.535368217054270.419864341085290.47800387596899
0.419864341085290.47800387596899
Node Last Edited Time=Apr/16/2007 15:19:56
#Sta/Elev= 4 
       0   21.04       0    1.04     100    1.04     100   21.04
#Mann= 3 , 0 , 0 
       0    .035       0       0    .035       0     100    .035       0
Bank Sta=0,100
XS Rating Curve= 0 ,0
XS HTab Horizontal Distribution= 5 , 5 , 5 
Exp/Cntr=0.3,0.1

Type RM Length L Ch R = 1 ,500.*   ,50,50,50
XS GIS Cut Line=5
0.553779069767460.554457364341090.553779069767460.55445736434109
0.515503875969010.497093023255820.477228682170560.43972868217054
0.477228682170560.43972868217054
Node Last Edited Time=Apr/16/2007 15:19:56
#Sta/Elev= 4 
       0   20.94       0     .94     100     .94     100   20.94
#Mann= 3 , 0 , 0 
       0    .035       0       0    .035       0     100    .035       0
Bank Sta=0,100
XS Rating Curve= 0 ,0
XS HTab Horizontal Distribution= 5 , 5 , 5 
Exp/Cntr=0.3,0.1

Type RM Length L Ch R = 1 ,450.*   ,50,50,50
XS GIS Cut Line=5
0.611143410852730.516182170542640.611143410852730.51618217054264
0.572868217054280.458817829457370.53459302325583 0.4014534883721
0.53459302325583 0.4014534883721
Node Last Edited Time=Apr/16/2007 15:19:56
#Sta/Elev= 4 
       0   20.85       0     .85     100     .85     100   20.85
#Mann= 3 , 0 , 0 
       0    .035       0       0    .035       0     100    .035       0
Bank Sta=0,100
XS Rating Curve= 0 ,0
XS HTab Horizontal Distribution= 5 , 5 , 5 
Exp/Cntr=0.3,0.1

Type RM Length L Ch R = 1 ,400.*   ,50,50,50
XS GIS Cut Line=5
  0.6685077519380.47790697674419  0.6685077519380.47790697674419
0.630232558139550.42054263565892 0.59195736434110.36317829457365
 0.59195736434110.36317829457365
Node Last Edited Time=Apr/16/2007 15:19:56
#Sta/Elev= 4 
       0   20.76       0     .76     100     .76     100   20.76
#Mann= 3 , 0 , 0 
       0    .035       0       0    .035       0     100    .035       0
Bank Sta=0,100
XS Rating Curve= 0 ,0
XS HTab Horizontal Distribution= 5 , 5 , 5 
Exp/Cntr=0.3,0.1

Type RM Length L Ch R = 1 ,350.*   ,50,50,50
XS GIS Cut Line=5
0.725872093023270.439631782945740.725872093023270.43963178294574
0.687596899224820.382267441860470.64932170542637 0.3249031007752
0.64932170542637 0.3249031007752
Node Last Edited Time=Apr/16/2007 15:19:56
#Sta/Elev= 4 
       0   20.66       0     .66     100     .66     100   20.66
#Mann= 3 , 0 , 0 
       0    .035       0       0    .035       0     100    .035       0
Bank Sta=0,100
XS Rating Curve= 0 ,0
XS HTab Horizontal Distribution= 5 , 5 , 5 
Exp/Cntr=0.3,0.1

Type RM Length L Ch R = 1 ,300.*   ,50,50,50
XS GIS Cut Line=5
0.783236434108540.401356589147290.783236434108540.40135658914729
0.744961240310090.343992248062020.706686046511640.28662790697675
0.706686046511640.28662790697675
Node Last Edited Time=Apr/16/2007 15:19:56
#Sta/Elev= 4 
       0   20.57       0     .57     100     .57     100   20.57
#Mann= 3 , 0 , 0 
       0    .035       0       0    .035       0     100    .035       0
Bank Sta=0,100
XS Rating Curve= 0 ,0
XS HTab Horizontal Distribution= 5 , 5 , 5 
Exp/Cntr=0.3,0.1

Type RM Length L Ch R = 1 ,250.*   ,50,50,50
XS GIS Cut Line=5
0.840600775193810.363081395348840.840600775193810.36308139534884
0.802325581395360.305717054263570.76405038759691 0.2483527131783
0.76405038759691 0.2483527131783
Node Last Edited Time=Apr/16/2007 15:19:56
#Sta/Elev= 4 
       0   20.47       0     .47     100     .47     100   20.47
#Mann= 3 , 0 , 0 
       0    .035       0       0    .035       0     100    .035       0
Bank Sta=0,100
XS Rating Curve= 0 ,0
XS HTab Horizontal Distribution= 5 , 5 , 5 
Exp/Cntr=0.3,0.1

Type RM Length L Ch R = 1 ,200.*   ,50,50,50
XS GIS Cut Line=5
0.897965116279080.324806201550390.897965116279080.32480620155039
0.859689922480630.267441860465120.821414728682180.21007751937985
0.821414728682180.21007751937985
Node Last Edited Time=Apr/16/2007 15:19:56
#Sta/Elev= 4 
       0   20.38       0     .38     100     .38     100   20.38
#Mann= 3 , 0 , 0 
       0    .035       0       0    .035       0     100    .035       0
Bank Sta=0,100
XS Rating Curve= 0 ,0
XS HTab Horizontal Distribution= 5 , 5 , 5 
Exp/Cntr=0.3,0.1

Type RM Length L Ch R = 1 ,150.*   ,50,50,50
XS GIS Cut Line=5
0.955329457364350.286531007751940.955329457364350.28653100775194
 0.91705426356590.229166666666670.87877906976745 0.1718023255814
0.87877906976745 0.1718023255814
Node Last Edited Time=Apr/16/2007 15:19:56
#Sta/Elev= 4 
       0   20.28       0     .28     100     .28     100   20.28
#Mann= 3 , 0 , 0 
       0    .035       0       0    .035       0     100    .035       0
Bank Sta=0,100
XS Rating Curve= 0 ,0
XS HTab Horizontal Distribution= 5 , 5 , 5 
Exp/Cntr=0.3,0.1

Type RM Length L Ch R = 1 ,100.*   ,50,50,50
XS GIS Cut Line=5
1.012693798449620.248255813953491.012693798449620.24825581395349
0.974418604651170.190891472868220.936143410852720.13352713178295
0.936143410852720.13352713178295
Node Last Edited Time=Apr/16/2007 15:19:56
#Sta/Elev= 4 
       0   20.19       0     .19     100     .19     100   20.19
#Mann= 3 , 0 , 0 
       0    .035       0       0    .035       0     100    .035       0
Bank Sta=0,100
XS Rating Curve= 0 ,0
XS HTab Horizontal Distribution= 5 , 5 , 5 
Exp/Cntr=0.3,0.1

Type RM Length L Ch R = 1 ,50.0000*,50,50,50
XS GIS Cut Line=5
1.070058139534890.209980620155041.070058139534890.20998062015504
1.031782945736440.152616279069770.99350775193799 0.0952519379845
0.99350775193799 0.0952519379845
Node Last Edited Time=Apr/16/2007 15:19:56
#Sta/Elev= 4 
       0   20.09       0     .09     100     .09     100   20.09
#Mann= 3 , 0 , 0 
       0    .035       0       0    .035       0     100    .035       0
Bank Sta=0,100
XS Rating Curve= 0 ,0
XS HTab Horizontal Distribution= 5 , 5 , 5 
Exp/Cntr=0.3,0.1

Type RM Length L Ch R = 1 ,0       ,0,0,0
BEGIN DESCRIPTION:
Downstream Boundary Section
END DESCRIPTION:
XS GIS Cut Line=5
1.127422480620160.171705426356591.127422480620160.17170542635659
1.089147286821710.114341085271321.050872093023260.05697674418605
1.050872093023260.05697674418605
Node Last Edited Time=Apr/16/2007 14:32:19
#Sta/Elev= 4 
       0      20       0       0     100       0     100      20
#Mann= 3 , 0 , 0 
       0    .035       0       0    .035       0     100    .035       0
Bank Sta=0,100
XS Rating Curve= 0 ,0
XS HTab Horizontal Distribution= 5 , 5 , 5 
Exp/Cntr=0.3,0.1

LCMann Time=Dec/30/1899 00:00:00
LCMann Region Time=Dec/30/1899 00:00:00
LCMann Table=0
Chan Stop Cuts=-1 



Use User Specified Reach Order=0
User Specified Reach Order=Brunner         ,1               
GIS Ratio Cuts To Invert=-1
GIS Limit At Bridges=0
Composite Channel Slope=5
