Geom Title=Morthond
Program Version=5.07
Viewing Rectangle= 0 , 1 , 1 , 0 

River Reach=Morthond        ,Morthond        
Reach XY= 11 
0.537815126050420.850420168067230.431932773109240.78151260504202
0.349579831932770.734453781512610.231932773109240.64873949579832
0.220168067226890.601680672268910.216806722689080.53949579831933
 0.2453781512605 0.44537815126050.287394957983190.34789915966387
 0.33277310924370.277310924369750.379831932773110.18991596638656
0.455462184873950.07058823529412
Rch Text X Y=0.5172269,0.6554622
Reverse River Text= 0 

Type RM Length L Ch R = 1 ,10000   ,500,500,500
Node Last Edited Time=Mar/11/2019 10:59:07
#Sta/Elev= 42 
       0   256.6    10.3   247.4    28.2   239.1    35.8   234.4      50   219.5
    68.9     209     110   197.8     130   203.8   188.1   194.3   221.3   197.8
   290.1   196.3  313.48   197.5  349.81   190.5  384.03   192.6  407.27     193
   440.8   190.1  475.22  187.11     480   185.9   483.6   182.8  487.54   175.2
     492   176.9   500.2   174.2     504   172.3   511.5   171.7     516   172.4
     530   181.8   531.9   181.3   532.3   181.9     536   186.4     540   195.1
  540.95  194.96   558.8   192.6   578.2   197.8   601.9   196.3     620   201.4
     670   203.3     750   214.1   760.7   215.7   820.2   235.5   828.6   239.5
   831.8   239.9     840   260.6
#Mann= 3 , 0 , 0 
       0     .07       0     480    .035       0     540     .07       0
Bank Sta=480,540
XS Rating Curve= 0 ,0
XS HTab Starting El and Incr=171.85,0.3, 100 
XS HTab Horizontal Distribution= 5 , 5 , 5 
Exp/Cntr=0.3,0.1

Type RM Length L Ch R = 1 ,9500    ,500,500,500
Node Last Edited Time=Mar/11/2019 10:59:15
#Sta/Elev= 42 
       0   257.7    10.3   247.2      30   237.3    33.3   232.2    49.5     219
    68.5   208.3   109.9   200.9   129.6   193.3     190   195.2   221.5   197.8
     290     195  316.43     197  361.22   189.5  392.06   192.5  416.14   192.6
   440.2   190.1  472.75  186.78     480   185.4     484   184.2     488   178.1
   492.4   178.6     500   174.1   503.9   173.4     512   172.5   515.6   172.9
     530     181   531.8   182.6     532   181.8     536   182.2     540   191.2
  547.11  191.56     560   192.3   579.7   197.6     600   195.4   620.4   200.3
   670.9   205.6   750.1   215.9     759   215.2     820   228.1   829.2   243.9
   830.1     246     840   260.5
#Mann= 3 , 0 , 0 
       0     .07       0     480    .035       0     540     .07       0
Bank Sta=480,540
XS Rating Curve= 0 ,0
XS HTab Starting El and Incr=172.65,0.3, 100 
XS HTab Horizontal Distribution= 5 , 5 , 5 
Exp/Cntr=0.3,0.1

Type RM Length L Ch R = 1 ,9000    ,500,500,500
Node Last Edited Time=Mar/11/2019 10:59:21
#Sta/Elev= 42 
       0   256.3     9.5   247.6    29.7     239      35   232.7      50     219
    69.9   210.8   111.8   202.8   130.6   199.7   188.6     194   221.8   197.1
   290.6   193.4     310   195.2  361.22  190.42   381.5  190.42  411.49  190.62
     440   191.5  475.29   187.4     480     187     484   181.1  488.38   178.4
   492.1   174.7     500   173.3   503.6   172.8     512     172   516.4   172.8
  525.14   176.3   531.9  179.72  533.59   181.9   536.1   183.9     540   191.8
  545.42  192.28   559.9   194.2   578.8   196.2   599.8   195.4   619.9   199.1
     670   204.7   748.4   211.9   759.3     215   820.7   234.3   828.4   239.4
   830.1   242.3     840   263.6
#Mann= 3 , 0 , 0 
       0     .07       0     480    .035       0     540     .07       0
Bank Sta=480,540
XS Rating Curve= 0 ,0
XS HTab Starting El and Incr=172.15,0.3, 100 
XS HTab Horizontal Distribution= 5 , 5 , 5 
Exp/Cntr=0.3,0.1

Type RM Length L Ch R = 1 ,8500    ,500,500,500
Node Last Edited Time=Mar/11/2019 10:59:28
#Sta/Elev= 42 
       0     256    10.4   247.4    28.4   236.3    35.7   232.6    50.7   225.3
      70   208.3   111.9   203.1     130   202.6   188.5     195   221.5   198.4
     290   194.7     310   196.7     360   188.5     380   193.8     410   192.2
     440   191.3   473.6  187.42     480   186.6   484.4   182.8   487.7   175.6
   492.4   176.8   499.9   174.6     504   173.8   511.6   172.8   516.2   172.8
  525.68   176.8  529.48  179.43   532.1   181.8     536   185.7     540   191.2
  547.53  191.66     560   192.7   581.8   193.1     600   195.3   619.5   199.4
   671.1   201.3     750   211.1     760     215   820.9   231.1   828.7   239.4
   831.4   238.6     840   259.9
#Mann= 3 , 0 , 0 
       0     .07       0     480    .035       0     540     .07       0
Bank Sta=480,540
XS Rating Curve= 0 ,0
XS HTab Starting El and Incr=172.95,0.3, 100 
XS HTab Horizontal Distribution= 5 , 5 , 5 
Exp/Cntr=0.3,0.1

Type RM Length L Ch R = 1 ,8000    ,500,500,500
Node Last Edited Time=Mar/11/2019 10:59:33
#Sta/Elev= 42 
       0   254.1      10   249.1      30   236.2      35   235.2    50.8   219.3
    68.5   207.4   109.9   205.2   128.8   199.5   189.2   194.1   218.7   197.1
   290.7   193.4   311.5     195  345.59   189.5     380   190.5     410   191.9
   439.4   189.2  475.71  187.16     480     187     484   180.6  487.11   178.4
     492   177.2   500.1   174.1   504.1   172.9   512.3     172   515.6   172.7
  528.09  176.09   531.9   181.8   532.2   183.2  536.54  184.83     540   189.3
   543.3  189.67   560.3     192   579.7   196.6     600   195.8     620   199.6
     670   204.2   751.9   212.6     760   215.6     820   227.8   829.7   239.5
   831.7   247.2     840   259.5
#Mann= 3 , 0 , 0 
       0     .07       0     480    .035       0     540     .07       0
Bank Sta=480,540
XS Rating Curve= 0 ,0
XS HTab Starting El and Incr=172.15,0.3, 100 
XS HTab Horizontal Distribution= 5 , 5 , 5 
Exp/Cntr=0.3,0.1

Type RM Length L Ch R = 1 ,7500    ,500,500,500
Node Last Edited Time=Mar/11/2019 10:59:55
#Sta/Elev= 42 
       0   262.5       8   247.3      29   236.2    34.7   232.7      50   217.5
    69.6   205.9   109.7   208.4     129     199   191.6   195.4     220   196.9
     290   197.7   309.9   194.8   360.2   191.2   378.2   191.5   409.4   192.1
     440   190.6  477.82  189.79     480   189.2   483.7   181.6   487.6   177.3
   492.3   176.7   500.5     174   503.5   173.5   511.5   171.9     516   172.7
     530   180.8   531.5   181.7     532   181.7     536   186.4     540   187.3
  544.57  187.61     560   188.4  579.21  196.23  602.45  196.75     620   201.4
     671   203.2     750   208.8   760.6   218.5   819.9   233.3   828.3   244.9
   831.7   243.2     840   256.4
#Mann= 3 , 0 , 0 
       0     .07       0     480    .035       0     540     .07       0
Bank Sta=480,540
XS Rating Curve= 0 ,0
XS HTab Starting El and Incr=172.05,0.3, 100 
XS HTab Horizontal Distribution= 5 , 5 , 5 
Exp/Cntr=0.3,0.1

Type RM Length L Ch R = 1 ,7000    ,500,500,500
Node Last Edited Time=Mar/11/2019 11:00:09
#Sta/Elev= 42 
       0   255.5      10   247.1    31.6   236.3    33.6   226.6      50   217.7
      70   208.2   111.1   200.9   130.3   199.2     190   195.2   218.6   194.5
  276.72   195.4     310   195.6  349.81   191.4     380   192.7   410.5   194.6
   438.8   191.2   477.4  187.77     480   186.8     484   182.7  489.23     178
   491.7   176.7     500   173.9     504   172.6   512.1   171.7     516   172.6
  525.56  175.57   531.7   182.1  535.28  183.53     536   186.1     540   192.3
  545.42   192.7  559.36  193.48     580   195.8   598.3   195.6   618.6   201.9
     670   204.4   751.8   215.4     759   216.6   819.5   232.3   828.2   233.3
   831.9   237.8     840   259.8
#Mann= 3 , 0 , 0 
       0     .07       0     480    .035       0     540     .07       0
Bank Sta=480,540
XS Rating Curve= 0 ,0
XS HTab Starting El and Incr=171.85,0.3, 100 
XS HTab Horizontal Distribution= 5 , 5 , 5 
Exp/Cntr=0.3,0.1

Type RM Length L Ch R = 1 ,6500    ,500,500,500
Node Last Edited Time=Mar/11/2019 11:00:19
#Sta/Elev= 42 
       0   259.7    10.7   250.5      30   232.3    36.7   226.9    50.6   219.3
      70   202.3   110.7   202.7     130     203   189.5   195.4     220   197.1
   288.6   193.7   310.8   194.8   360.9     193   378.2   192.9   409.8   193.6
   438.8   192.7  477.82  189.84     480   186.8   484.4   182.6     488   177.7
     492   175.4   500.1   173.1     504   172.6   512.2     171     516   172.6
     530   180.5     532   181.1   532.2   181.6     536   184.6     540   191.4
  542.88  193.04     559   193.9   579.3     193     600   192.4     620   202.1
   668.4     201     750   211.3     760   215.3   819.7   228.3   828.3   239.4
   830.5   243.2     840     260
#Mann= 3 , 0 , 0 
       0     .07       0     480    .035       0     540     .07       0
Bank Sta=480,540
XS Rating Curve= 0 ,0
XS HTab Starting El and Incr=171.15,0.3, 100 
XS HTab Horizontal Distribution= 5 , 5 , 5 
Exp/Cntr=0.3,0.1

Type RM Length L Ch R = 1 ,6000    ,500,500,500
Node Last Edited Time=Mar/11/2019 11:00:25
#Sta/Elev= 42 
       0     256      10   246.2    29.6   239.9    36.7   235.6    48.6   223.8
      70   208.5   108.9   206.1     130   198.8   188.3   194.8   220.5   198.1
   288.9   195.2     309   194.8  357.84   191.5  381.92   193.2     410   192.3
   441.7   191.2  477.82  189.41     480   187.7   483.6   181.5  486.27   177.7
   491.9   178.3     500   173.6     504   172.5   512.5   171.6   515.9   171.8
     530   180.8   531.6   181.6  534.43   183.9   535.5   186.1     540   187.4
  542.46   189.5     560   192.1   579.8     192   600.3   194.9   620.9   198.8
     670   205.1   749.2   213.1     760   213.5   819.4   236.7   828.6   245.4
   831.7   242.6     840   255.5
#Mann= 3 , 0 , 0 
       0     .07       0     480    .035       0     540     .07       0
Bank Sta=480,540
XS Rating Curve= 0 ,0
XS HTab Starting El and Incr=171.75,0.3, 100 
XS HTab Horizontal Distribution= 5 , 5 , 5 
Exp/Cntr=0.3,0.1

Type RM Length L Ch R = 1 ,5500    ,500,500,500
Node Last Edited Time=Mar/11/2019 11:00:56
#Sta/Elev= 42 
       0     256     9.1   246.7      30   238.3      36   232.4    49.7   223.1
    68.7     208   109.6   202.6   128.9   197.4   188.7   194.8     220   196.6
   289.5     196   309.8   196.3     358   191.3   381.1     192   408.6   192.5
   440.8   191.2  477.82  188.34     480   185.2   484.4   182.5   488.8  176.51
   494.3  174.33     500   173.8   503.8   171.8   512.3   171.7   516.3   171.7
  524.38  175.84  528.32  177.14     532   179.3  535.28   184.4     540   194.6
  549.22  194.88  558.51     195   579.5   196.9  600.34   195.9   619.7   198.9
     670   203.2   748.4   212.5     760   215.7   820.1   232.4   828.3   238.6
   830.4   245.9     840   261.4
#Mann= 3 , 0 , 0 
       0     .07       0     480    .035       0     540     .07       0
Bank Sta=480,540
XS Rating Curve= 0 ,0
XS HTab Starting El and Incr=171.85,0.3, 100 
XS HTab Horizontal Distribution= 5 , 5 , 5 
Exp/Cntr=0.3,0.1

Type RM Length L Ch R = 1 ,5000    ,500,500,500
Node Last Edited Time=Mar/11/2019 11:01:10
#Sta/Elev= 41 
       0   256.2    11.8   247.3      30   235.6      35     233    51.6   219.4
      70   208.1   111.6   202.2   128.4   201.6     190   195.7     220   197.2
   291.6     195   311.3   195.4   358.9     191   379.9   191.2   409.1     192
   440.9   192.4  479.09  189.58     480   186.6     484   181.3   487.6   179.2
   491.5   174.7   500.1   173.7     504   172.4   511.5     172   516.4   173.2
     530   180.5   531.9   181.7   532.5   183.7     536   184.9     540   189.8
  545.42   190.8     560   193.3     580   195.6  598.23  195.47   621.4   198.7
   671.6   200.6     750   214.8     762   212.8     820   227.2   828.1   233.4
   830.6   243.5
#Mann= 3 , 0 , 0 
       0     .07       0     480    .035       0     540     .07       0
Bank Sta=480,540
XS Rating Curve= 0 ,0
XS HTab Starting El and Incr=172.15,0.3, 100 
XS HTab Horizontal Distribution= 5 , 5 , 5 
Exp/Cntr=0.3,0.1

Type RM Length L Ch R = 1 ,4500    ,500,500,500
Node Last Edited Time=Mar/11/2019 11:01:24
#Sta/Elev= 42 
       0     260      10   247.2    31.3   236.4      35   232.2    48.4   223.3
      70   206.8   111.1   204.9   128.1     202   180.4  199.36   219.2   196.9
   290.6   194.5   309.1   192.6  352.77   193.4     380   193.5  409.38   191.9
   441.9   190.4  477.82  189.58     480   187.5   484.1   180.2   487.9   174.6
  496.41  174.53     500   174.1   503.7   172.5     512   171.8     516   172.9
     530   180.5   531.8   181.4  534.43  181.97     536   183.4     540   194.8
  547.53  194.95     560   193.9   579.5   195.6   600.8   194.6     620   198.9
     670   201.8     750   213.8   760.2   212.5   818.8   231.8   829.6     244
   831.3   243.3     840   254.4
#Mann= 3 , 0 , 0 
       0     .07       0     480    .035       0     540     .07       0
Bank Sta=480,540
XS Rating Curve= 0 ,0
XS HTab Starting El and Incr=171.95,0.3, 100 
XS HTab Horizontal Distribution= 5 , 5 , 5 
Exp/Cntr=0.3,0.1

Type RM Length L Ch R = 1 ,4000    ,500,500,500
Node Last Edited Time=Mar/11/2019 11:01:40
#Sta/Elev= 42 
       0   258.7      10   248.5    29.9   236.1      35   231.5      50   219.2
    71.8   208.9     110   199.7   128.7   201.9   191.7   194.8   220.3   195.3
   288.7   195.3   309.4   193.5     360   188.5  383.61  188.29  411.91  188.63
  443.18  187.25  475.71   186.9     480   186.8   483.5   182.4  486.69   177.5
   492.3   176.3     500   173.1   503.8   172.4   511.7   171.5   515.9   171.9
     530     181   531.9   181.7  534.43  183.79   539.5  190.19     540   194.1
  542.46  194.08  561.89  192.87   578.3   192.6   598.6   192.2     620     201
   671.4   205.1   751.9     208   759.9     211   820.6   231.5   829.9   242.4
   831.4   241.9     840   258.9
#Mann= 3 , 0 , 0 
       0     .07       0     480    .035       0     540     .07       0
Bank Sta=480,540
XS Rating Curve= 0 ,0
XS HTab Starting El and Incr=171.65,0.3, 100 
XS HTab Horizontal Distribution= 5 , 5 , 5 
Exp/Cntr=0.3,0.1

Type RM Length L Ch R = 1 ,3500    ,500,500,500
Node Last Edited Time=Mar/11/2019 11:01:51
#Sta/Elev= 42 
       0   259.2      10   249.2    31.1   233.5    33.4   234.7    49.9   215.9
    70.9   204.4     110   200.4   131.9   198.5     190   193.4   221.7   195.4
   289.9   197.1   310.7   192.6   361.1   190.7     381   191.3     410   192.8
     440   190.3  474.86  187.77     480   186.5   484.1   182.3     488   175.9
     492   174.8     500   173.6     504   172.3     512   171.1     516   172.9
  525.15  175.68  528.98  177.29   532.1   179.1   536.1   184.9     540   190.8
  544.15  192.27     560   194.9   578.9   196.2   601.4   193.4   619.8   201.9
     670   203.3   750.2   214.9     760   211.4   821.9   233.8   828.1   237.3
   830.9   242.4     840   259.4
#Mann= 3 , 0 , 0 
       0     .07       0     480    .035       0     540     .07       0
Bank Sta=480,540
XS Rating Curve= 0 ,0
XS HTab Starting El and Incr=171.25,0.3, 100 
XS HTab Horizontal Distribution= 5 , 5 , 5 
Exp/Cntr=0.3,0.1

Type RM Length L Ch R = 1 ,3000    ,500,500,500
Node Last Edited Time=Mar/11/2019 11:03:38
#Sta/Elev= 42 
       0   255.9     8.3   245.8    31.2   234.3      35   235.6    49.6   224.9
    71.5   211.6   111.1   200.5   128.3   198.9  189.27  198.24   219.3   197.7
   291.9   194.6   310.7     195   360.1   192.4     380   191.8   411.6     192
   439.2     191  476.98  189.58     480   186.7     484   182.2  488.38   177.3
   491.5   175.3   499.9   173.6   503.9   172.3   511.6   171.4     516   172.2
     530   179.4   531.6   180.8  532.74   181.2     536   184.7     540   190.8
  542.04  192.09   560.3   191.6     580   198.6  602.87  199.27   621.1   201.9
   670.9   199.2   751.6   212.8     761   217.2   818.1   229.2     828   238.8
     831   240.8     840   259.3
#Mann= 3 , 0 , 0 
       0     .07       0     480    .035       0     540     .07       0
Bank Sta=480,540
XS Rating Curve= 0 ,0
XS HTab Starting El and Incr=171.55,0.3, 100 
XS HTab Horizontal Distribution= 5 , 5 , 5 
Exp/Cntr=0.3,0.1

Type RM Length L Ch R = 1 ,2500    ,500,500,500
Node Last Edited Time=Mar/11/2019 11:03:54
#Sta/Elev= 42 
       0     258     9.4   252.6    31.1   230.5    33.1   228.8      50   219.2
    68.3   213.6     110   202.8  136.88  200.22  193.07  197.98   218.3   196.8
     290   195.2   309.1   194.5  350.65   191.3   381.5   190.7  412.76     192
   439.5   188.4  477.82  187.68     480   186.4     484   181.5     488   175.1
   491.6   173.2  500.63   173.6     504     172   512.2   172.4   516.3   172.2
   528.2  177.77  531.24   178.6  533.68  179.93  537.09  184.03     540   193.2
  541.61  194.43  559.36   194.4  576.26   195.5   599.1   197.9     620   196.2
   670.6   200.8   751.6   213.8     760   217.1   821.4   226.5   829.8   238.7
   830.5   243.2     840   254.6
#Mann= 3 , 0 , 0 
       0     .07       0     480    .035       0     540     .07       0
Bank Sta=480,540
XS Rating Curve= 0 ,0
XS HTab Starting El and Incr=172.15,0.3, 100 
XS HTab Horizontal Distribution= 5 , 5 , 5 
Exp/Cntr=0.3,0.1

Type RM Length L Ch R = 1 ,2000    ,500,500,500
Node Last Edited Time=Mar/11/2019 11:04:18
#Sta/Elev= 42 
       0   255.7     8.6   245.7    30.5     234    34.7     231    51.5   215.5
      70   211.1  102.66  206.97   130.9   204.2  178.71  199.19   218.6     198
   290.4   194.3  312.63  193.82  346.85  191.57  379.38  191.14   409.2   189.4
   439.8  189.76  476.98  188.03     480   186.5   483.6   182.2  486.27   179.3
   492.4   177.9   500.3   173.5   504.3   172.1     512   172.3     516   172.2
  527.67  175.92     532   181.3  532.74  182.58   535.9   183.2     540   189.4
   543.3  192.96     560   195.3     580   196.4   597.8  197.63     620     199
   668.7   201.7     750   210.4     760   213.3     819   231.4   829.2   238.9
   831.5   242.9     840   259.8
#Mann= 3 , 0 , 0 
       0     .07       0     480    .035       0     540     .07       0
Bank Sta=480,540
XS Rating Curve= 0 ,0
XS HTab Starting El and Incr=172.25,0.3, 100 
XS HTab Horizontal Distribution= 5 , 5 , 5 
Exp/Cntr=0.3,0.1

Type RM Length L Ch R = 1 ,1500    ,500,500,500
Node Last Edited Time=Mar/11/2019 11:04:26
#Sta/Elev= 42 
       0   258.3       9   245.9      31   235.7   36.33   229.3      50     214
      70   204.5     110   201.6     131   203.7     190   194.8     220   195.6
   291.8   195.1     310   194.7  349.39   191.4     381     194   408.2     192
   440.8   190.2  478.24  188.81     480   186.6   483.7   180.8  487.54   177.6
   491.6   176.1   500.1   173.8   504.2   173.1     512   170.9     516   171.2
  527.25  174.27  532.32  177.04  534.85  180.33     536   183.5     540   191.1
  541.61  192.87   561.7   193.1   580.1   192.1   601.9   194.2     620   198.8
     670   201.3   750.9   215.3   758.5   214.3     820   231.9   829.1   237.1
   831.9   238.2     840     257
#Mann= 3 , 0 , 0 
       0     .07       0     480    .035       0     540     .07       0
Bank Sta=480,540
XS Rating Curve= 0 ,0
XS HTab Starting El and Incr=171.05,0.3, 100 
XS HTab Horizontal Distribution= 5 , 5 , 5 
Exp/Cntr=0.3,0.1

Type RM Length L Ch R = 1 ,1000    ,500,500,500
Node Last Edited Time=Mar/11/2019 11:04:43
#Sta/Elev= 42 
       0   250.9    11.5   246.8      30   236.5    33.8     232    50.3     221
    71.1   213.5   109.6   202.9  136.46   199.1  186.73  198.15     220   196.9
  260.25   193.3   309.8   192.5  358.68  190.62   379.6   191.5     410   189.6
  443.18  190.28   477.4  189.67     480   186.6     484   182.1  487.96   177.2
     492   173.6  501.06   173.3  504.01   172.6   512.2   171.1   516.3   171.9
     530   179.2   531.8   181.1   532.2     181   536.1   184.5     540   190.4
  541.19  191.66     560   191.7   581.8   194.7     600     195     620   195.6
   669.2   201.8   748.3   214.2     760   214.2   821.7   231.9     829   236.9
   831.9   237.6     840   257.1
#Mann= 3 , 0 , 0 
       0     .07       0     480    .035       0     540     .07       0
Bank Sta=480,540
XS Rating Curve= 0 ,0
XS HTab Starting El and Incr=171.25,0.3, 100 
XS HTab Horizontal Distribution= 5 , 5 , 5 
Exp/Cntr=0.3,0.1

Type RM Length L Ch R = 1 ,500     ,500,500,500
Node Last Edited Time=Mar/11/2019 11:04:53
#Sta/Elev= 42 
       0   257.8    10.1   251.6      30   235.7    34.7   231.8    50.5   213.2
      70   205.5     110   202.7  141.95  198.24   191.3   196.2   221.4   197.3
   290.7   193.6   309.2   194.9  357.41  191.66   379.8   191.3   411.7   191.6
   439.9   190.9  477.82  188.63     480   184.8   484.4     182   488.2   177.1
     492   173.6     500   173.3     504     172     512   170.8     516     172
  526.83  176.87  531.47  178.17  534.43  179.64     536     183     540     191
  541.61  191.92     560   191.9   579.8   193.7   601.3   192.9     620   197.8
     670   199.1   748.7   215.2     760   211.4     820   227.3   828.3   238.5
     832   242.7     840   256.5
#Mann= 3 , 0 , 0 
       0     .07       0     480    .035       0     540     .07       0
Bank Sta=480,540
XS Rating Curve= 0 ,0
XS HTab Starting El and Incr=170.95,0.3, 100 
XS HTab Horizontal Distribution= 5 , 5 , 5 
Exp/Cntr=0.3,0.1

Type RM Length L Ch R = 1 ,0       ,0,0,0
Node Last Edited Time=Mar/11/2019 11:05:18
#Sta/Elev= 42 
       0   258.5    11.3   244.6    30.1   237.8    34.1   231.3    49.6   222.1
      70   212.9    99.7  206.51   129.5   204.8  188.85  198.93     220   198.6
  288.13   194.8   311.2   195.2  358.26  190.21   379.4   191.5     410   191.1
   441.3   191.1  478.66  190.31     480   185.5  482.89   183.3  489.23     177
  492.61   176.7  499.79   173.3  504.44   172.4   512.1   170.3   516.3     172
  526.83  176.61   531.7   180.2  535.28   181.8   536.2   183.6     540   187.9
  543.73  191.14   558.3   193.6     580   197.3  598.65  198.72   619.8   202.3
  667.51  202.25     750   213.6   760.6   213.4     820   233.8   828.2   234.9
   830.1   242.7     840   261.6
#Mann= 3 , 0 , 0 
       0     .07       0     480    .035       0     540     .07       0
Bank Sta=480,540
XS Rating Curve= 0 ,0
XS HTab Starting El and Incr=170.45,0.3, 100 
XS HTab Horizontal Distribution= 5 , 5 , 5 
Exp/Cntr=0.3,0.1

Stream Node=Morthond        ,Morthond        , 0 , 0 ,Upstream end                                                    

Stream Node=Morthond        ,Morthond        , 0 , 1 ,Downstream end                                                  

LCMann Time=Dec/30/1899 00:00:00
LCMann Region Time=Dec/30/1899 00:00:00
LCMann Table=0
Chan Stop Cuts=-1 



Use User Specified Reach Order=0
GIS Ratio Cuts To Invert=-1
GIS Limit At Bridges=0
Composite Channel Slope=5
