Flow Title=Flow Hydrograph No Dam
Program Version=4.01
Use Restart= 0 
Initial Flow Loc=Bald Eagle      ,Loc Hav         ,138154.4,1075.53
Boundary Location=Bald Eagle      ,Loc Hav         ,138154.4,        ,                ,                
Interval=1HOUR
Flow Hydrograph= 150 
 1075.53 1301.64 1676.94 2199.12 2864.95 3670.34 4610.32 5679.08 6870.05 8175.88
 9588.5211099.2612698.7914377.2316124.2617929.0819780.5921667.3623577.75   25500
27422.2529332.6431219.4133070.9234875.7436622.7738301.2139900.7441411.4842824.12
44129.9545320.9246389.6847329.6648135.0548800.8849323.0649698.3649924.48   50000
49924.4849698.3649323.0648800.8848135.0547329.6646389.6845320.9244129.9542824.12
41411.4839900.7438301.2136622.7734875.7433070.9231219.4129332.6427422.2526133.62
24907.8423741.8422632.7121577.6720574.0819619.4518711.3617847.57 17025.916244.31
15500.8414793.62 14120.913480.9912872.2812293.2611742.4911218.57 10720.210246.14
  9795.2 9366.26 8958.23  8570.1  8200.9 7849.71 7515.65 7197.88  6895.6 6608.07
 6334.56 6074.39 5826.91  5591.5 5367.57 5154.56 4951.94  4759.2 4575.86 4401.47
 4235.58 4077.77 3927.67 3784.89 3649.07 3519.87 3396.97 3280.07 3168.87 3063.09
 2962.48 2866.76 2775.72 2689.12 2606.74 2528.38 2453.84 2382.93 2315.49 2251.33
  2190.3 2132.25 2077.03  2024.5 1974.54 1927.01  1881.8 1838.79 1797.88 1758.97
 1721.95 1686.74 1653.25 1621.39 1591.09 1562.26 1534.84 1508.75 1483.94 1460.34
 1437.89 1416.53 1396.22 1376.89 1358.51 1341.03  1324.4 1308.57 1293.53 1279.21
DSS Path=
Use DSS=False
CWMS InputPosition= 0 
Use Fixed Start Time=False
Fixed Start Date/Time=,
Is Critical Boundary=False
Critical Boundary Flow=
Boundary Location=Bald Eagle      ,Loc Hav         ,659.942 ,        ,                ,                
Rating Curve= 7 
   529.2       0     535    1000     540    3000   557.3   16500   562.1   27000
   564.1   32500   568.6   47000
DSS Path=
Use DSS=False
CWMS InputPosition= 0 
Use Fixed Start Time=False
Fixed Start Date/Time=,
Is Critical Boundary=False
Critical Boundary Flow=
