Geom Title=Dredge Reach
Program Version=5.00
Viewing Rectangle= 2184081.87 , 2197202.74 , 670684.3 , 654940.12 

River Reach=Celduin         ,Celduin         
Reach XY= 3431 
2187396.50588727655975.488830898     2194159.058      656198.563
     2194159.058      656198.563     2194168.646      656199.362
     2194177.674      656200.114     2194180.333      656200.336
     2194197.869      656201.797     2194209.771      656202.789
     2194211.501      656202.933     2194216.382       656203.34
     2194221.186       656203.74     2194226.058      656203.872
     2194234.869       656204.11     2194239.555      656204.237
     2194246.365      656204.421     2194252.999        656204.6
      2194264.35      656204.907     2194266.948      656204.977
     2194269.076      656205.035     2194275.099      656205.035
     2194280.989      656205.035     2194282.779      656205.035
     2194294.507      656205.035     2194299.956      656205.035
     2194306.611      656205.035     2194307.339      656205.079
     2194317.026      656205.666     2194321.444      656205.934
      2194332.97      656206.632      2194335.68      656206.796
     2194346.501      656207.452     2194349.324      656207.623
     2194349.785      656207.673     2194356.312      656208.372
     2194365.071      656209.311     2194369.663      656209.803
     2194377.998      656210.696     2194385.565      656211.506
     2194387.883      656211.506      2194391.49      656211.506
      2194392.36      656211.506     2194393.657      656211.506
     2194406.588      656211.506     2194413.997      656211.506
     2194419.852      656211.506     2194428.788      656211.506
     2194433.208      656211.506      2194434.75      656211.506
     2194435.994      656211.582     2194446.939      656212.245
     2194447.026       656212.25     2194461.336      656213.118
     2194469.345      656213.603      2194474.87      656213.938
     2194477.463      656214.095     2194480.506      656214.464
     2194489.039      656215.498     2194501.197      656216.972
     2194504.626      656217.388     2194515.396      656218.693
      2194519.35      656219.172     2194520.175      656219.272
     2194526.748       656220.49     2194534.494      656221.924
     2194550.183      656224.829     2194550.368      656224.864
     2194550.454      656224.879     2194550.721      656224.929
     2194555.122      656225.744     2194561.719      656226.477
     2194564.928      656226.834     2194572.962      656227.726
     2194579.423      656228.444     2194584.831      656229.045
     2194590.069      656229.627     2194593.888      656229.882
     2194603.974      656230.554     2194607.839      656230.812
     2194618.402      656231.516     2194622.346      656231.779
     2194628.899      656232.216     2194630.086      656232.422
     2194636.986      656233.622      2194650.68      656236.004
     2194652.022      656236.237     2194652.719      656236.358
     2194655.197      656236.789     2194658.668      656237.393
     2194664.355      656237.962     2194666.822      656238.208
     2194670.813      656238.607      2194681.67      656239.693
     2194687.305      656240.257     2194695.768      656241.103
     2194697.498      656241.276     2194707.628      656242.723
     2194710.759       656243.17     2194721.999      656244.776
     2194726.118      656245.364     2194733.149      656246.369
     2194733.739      656246.453     2194740.778      656247.459
     2194754.034      656249.353     2194755.327      656249.537
      2194758.52      656249.993      2194769.98      656251.631
     2194771.353      656251.859      2194779.37      656253.195
     2194785.961      656254.294     2194798.715       656256.42
      2194801.57      656256.895     2194803.025      656257.138
     2194807.682      656257.914      2194808.81      656258.102
     2194815.892      656258.861      2194825.49      656259.889
     2194830.628       656260.44     2194837.232      656261.147
     2194845.051      656261.985     2194845.272      656262.014
     2194848.635      656262.448     2194859.506       656263.85
     2194859.949      656263.907     2194861.386      656264.093
     2194871.197      656265.359     2194874.157      656265.741
      2194882.86      656266.864     2194885.175      656267.162
     2194889.143      656267.546     2194899.552      656268.554
      2194903.21      656268.908     2194905.157      656269.096
     2194912.874      656269.843      2194917.18       656270.26
     2194918.399      656270.378     2194920.211      656270.553
     2194925.299      656271.045     2194933.076       656272.99
     2194940.087      656274.742     2194949.904      656277.197
     2194952.736      656277.905     2194959.804      656279.671
     2194964.897      656280.945      2194966.79      656281.418
     2194970.565      656282.362     2194971.895      656282.694
     2194985.769      656290.115     2194990.057      656292.409
     2194997.137      656296.196     2195003.521      656299.611
     2195007.221      656301.589     2195016.774      656306.699
     2195027.551      656312.464     2195028.157      656312.751
     2195032.117      656314.633     2195049.055      656322.678
     2195055.677      656325.824      2195068.63      656331.976
     2195068.644      656331.983     2195068.652      656331.987
     2195079.324      656337.056     2195082.368      656339.046
      2195092.49      656345.664     2195096.426      656348.238
      2195101.32      656351.438     2195109.875      656357.031
     2195112.977       656359.06     2195117.193      656362.398
     2195130.913      656373.259     2195139.379      656379.961
     2195147.582      656386.456     2195159.956      656396.252
     2195175.105      656408.244     2195179.193      656412.877
     2195185.659      656420.206     2195201.479      656438.136
     2195209.074      656446.742     2195219.367      656458.408
     2195232.611      656473.418     2195233.349      656474.255
     2195249.773      656494.498     2195254.561      656500.399
     2195272.649      656522.694     2195276.507       656527.45
     2195289.005      656542.854     2195291.705      656547.456
     2195297.059      656556.583     2195299.875      656561.382
     2195311.317      656580.885     2195314.693      656586.641
     2195315.811      656588.545     2195332.412      656616.843
     2195342.756      656634.475     2195345.956      656639.928
     2195349.938      656647.707     2195354.131        656655.9
     2195363.197      656673.609     2195366.046      656679.176
     2195376.452      656699.503      2195382.02       656710.38
     2195387.696      656721.468      2195398.26      656742.104
     2195399.257      656744.052     2195401.174      656747.796
     2195401.612      656748.652     2195416.269      656771.202
     2195430.866      656793.659     2195435.594      656800.932
     2195448.274      656820.441     2195454.544      656830.086
     2195465.305      656846.642     2195468.917      656852.198
     2195473.797      656859.288     2195483.395      656873.233
     2195493.817      656888.374     2195504.169      656903.414
     2195513.907      656917.561     2195523.126      656930.955
     2195533.474      656945.989     2195537.516      656951.861
     2195542.522      656959.266     2195553.289      656975.192
     2195565.456       656993.19     2195572.967      657004.299
      2195579.36      657013.756     2195592.294      657032.887
     2195598.065      657041.423     2195599.644      657043.758
     2195610.351       657063.09     2195611.675      657065.482
     2195614.488       657070.56     2195627.491      657094.038
     2195635.962      657109.332     2195644.505      657124.757
     2195646.239       657127.89     2195658.399      657147.818
     2195662.538        657154.6     2195677.467      657179.069
     2195680.077      657183.345     2195680.695      657184.359
     2195692.835      657204.255     2195694.743      657207.744
     2195698.581      657214.761     2195707.337      657230.772
     2195715.661      657245.994     2195730.862      657273.789
     2195731.914      657275.713     2195732.335      657276.484
     2195738.137      657287.092      2195748.94      657302.084
     2195751.519      657305.664     2195769.683       657330.87
     2195772.191      657334.351     2195774.496      657337.549
     2195792.837      657363.002     2195793.851      657364.409
     2195801.559      657375.106     2195809.621      657386.063
     2195813.419      657391.224     2195813.733       657391.65
     2195834.017      657419.216     2195852.037      657443.705
      2195852.07      657443.751     2195854.621      657447.348
     2195872.112      657472.015     2195874.855      657475.885
     2195892.036      657500.114     2195895.148      657504.502
     2195902.516      657514.893      2195911.44      657525.942
     2195916.446       657532.14     2195924.616      657542.255
     2195938.876       657559.91     2195947.558      657570.659
     2195956.878      657582.198     2195960.678      657587.161
     2195966.713      657595.044     2195982.096      657615.136
     2195984.877      657618.768     2196003.432      657643.004
     2196003.987      657643.729     2196008.249      657649.295
       2196020.3      657665.035     2196024.316      657670.257
     2196040.936      657691.862     2196045.648      657697.988
     2196059.229      657715.643     2196067.069      657725.835
     2196072.073       657732.34     2196080.232      657745.636
     2196086.353      657755.612     2196102.884       657782.55
      2196104.41      657785.038      2196107.02       657789.29
     2196121.499      657804.928     2196127.758      657811.688
     2196137.939      657822.684     2196139.378      657824.237
     2196149.533       657839.47     2196157.454      657851.352
     2196167.853       657866.95      2196168.69      657868.552
     2196183.183      657896.276     2196184.786      657899.344
     2196187.155      657903.876     2196197.259      657923.206
     2196197.622        657923.9     2196200.676      657931.673
     2196204.776       657942.11     2196210.208      657955.937
     2196212.294      657961.245     2196213.887      657965.301
     2196219.794      657980.338     2196226.098      657996.383
     2196226.509      657997.857     2196226.918      657999.327
     2196231.307      658015.076     2196235.705      658030.855
     2196236.814      658034.836     2196244.097      658060.969
     2196245.398      658065.637     2196246.666      658070.188
     2196248.101      658075.337     2196252.409       658092.09
     2196254.053      658098.484     2196256.156      658106.659
     2196258.311      658115.043     2196260.256      658122.606
     2196262.689      658132.065     2196265.412      658142.658
     2196266.735      658147.801     2196267.927      658152.438
     2196271.399      658165.939     2196274.373      658178.749
     2196275.145      658182.074     2196278.667      658197.248
     2196281.875      658211.068     2196282.355      658213.132
     2196283.033      658216.054     2196286.163      658229.538
     2196288.225      658238.422     2196288.246      658238.658
     2196289.589      658254.245     2196290.148      658260.727
     2196291.155      658272.404     2196292.061      658282.918
     2196292.433      658287.235     2196293.066      658294.572
     2196293.925      658304.532     2196294.697      658313.493
     2196294.438      658314.887     2196293.001      658322.631
     2196290.325      658337.053     2196290.199      658337.733
     2196290.136      658338.069     2196289.925      658339.211
     2196287.964      658349.776     2196287.386      658352.891
     2196286.299      658358.749     2196284.568      658368.076
     2196282.228      658380.685     2196281.778      658383.112
     2196280.747      658388.666     2196279.437      658395.726
     2196279.058      658397.767     2196277.265      658407.432
     2196276.224       658413.04     2196274.078      658424.608
     2196273.282      658428.898     2196272.888       658431.02
     2196271.627      658437.816     2196270.521      658443.774
     2196268.695      658453.615     2196267.865       658458.09
     2196266.326      658466.381     2196265.107      658472.951
     2196262.578      658486.577     2196262.335      658487.887
     2196262.262      658488.282     2196262.116      658489.066
     2196259.316      658504.155     2196257.983       658511.34
     2196256.651       658518.52     2196253.888       658533.41
     2196253.706      658534.389     2196253.602      658534.948
     2196253.293      658536.615     2196251.465      658546.466
     2196250.921      658549.396     2196249.831      658555.269
     2196248.169      658564.227     2196248.101      658564.592
     2196245.844      658578.559     2196245.497      658580.705
     2196245.319      658581.809     2196244.798      658585.032
     2196243.013      658596.073     2196241.532       658605.24
      2196240.52      658611.498     2196238.521      658623.867
     2196238.012      658627.017     2196236.969      658633.473
     2196235.491      658642.621     2196233.988      658651.915
     2196233.082      658657.526     2196232.085      658663.693
     2196229.568      658679.266     2196228.001      658688.963
     2196227.122      658694.403     2196225.091      658706.967
     2196223.459      658717.067     2196221.139      658731.421
      2196218.75      658746.204     2196215.195        658768.2
     2196214.359      658773.373     2196213.662      658777.682
     2196209.194      658805.329     2196208.988      658806.606
     2196208.803      658807.747     2196206.221      658823.725
      2196203.68      658839.448     2196203.469      658840.757
     2196203.249      658842.117      2196198.82      658869.521
     2196198.154      658873.638     2196197.288      658878.997
     2196195.378      658890.816     2196193.829        658900.4
     2196191.279      658916.182     2196189.841      658925.078
     2196188.721      658932.005     2196185.974      658949.007
      2196185.35      658952.836     2196184.645      658957.161
     2196183.938      658961.501       2196181.7       658975.24
      2196179.28      658990.092     2196178.806      658993.003
     2196178.396      658995.517     2196175.563      659012.903
     2196173.887      659023.192     2196173.651      659024.642
     2196173.351      659026.483     2196170.931      659041.339
     2196168.798      659054.432     2196168.075      659058.868
     2196167.272      659063.795     2196163.516      659086.851
     2196162.568       659092.67      2196161.26      659100.694
     2196158.782      659115.906     2196157.145      659125.952
     2196155.235      659137.677     2196154.292      659143.464
     2196153.579      659147.842     2196149.211      659174.652
      2196148.89      659176.625     2196148.438      659179.397
     2196142.601      659196.129     2196138.225      659208.673
     2196129.471       659233.77     2196126.598      659242.004
     2196121.932      659255.382     2196114.831      659275.738
     2196113.118      659280.647     2196110.365       659288.54
     2196103.057      659309.489     2196092.318      659340.274
     2196091.337      659343.087     2196091.076      659343.835
     2196090.624      659345.131     2196090.193      659346.365
     2196077.982      659376.021     2196069.166      659397.431
     2196064.731      659408.202     2196059.457       659421.01
     2196051.181       659441.11     2196044.571      659457.162
      2196037.83      659473.533     2196034.684      659481.173
     2196026.296      659501.545     2196024.752      659505.294
     2196024.219      659506.588     2196022.745      659510.168
     2196010.782      659539.222     2195998.535      659568.965
     2195997.427      659571.656     2195996.986      659572.726
     2195995.852       659575.48     2195983.809      659604.727
     2195975.817      659624.137     2195970.609      659636.784
     2195968.399      659642.153      2195963.41      659654.267
      2195957.03      659669.762     2195954.289      659676.419
     2195948.933      659688.637     2195943.029      659702.108
     2195938.169      659713.197     2195928.986      659734.148
     2195927.675      659737.138     2195924.247      659744.959
     2195914.629      659766.902      2195906.86      659784.627
     2195900.593      659798.924     2195887.669      659828.411
     2195886.656      659830.721     2195886.187      659831.792
     2195884.751      659835.068     2195872.571      659862.856
     2195866.121      659877.573     2195858.389      659895.213
     2195844.527      659926.839      2195844.22      659927.538
     2195843.618      659928.913     2195833.228      659952.618
     2195829.903      659960.204     2195823.105      659975.712
     2195815.931       659992.08     2195812.345      660000.262
     2195802.643      660022.395      2195801.77      660024.388
     2195791.811       660047.11       2195787.7      660056.488
     2195779.676      660074.795     2195779.555      660075.071
     2195772.542      660087.878     2195761.668      660107.734
     2195755.402      660119.176      2195743.49      660140.929
     2195738.676       660149.72     2195725.472      660173.831
      2195721.87      660180.409     2195720.016      660183.795
     2195709.192      660198.157     2195701.031      660208.986
     2195694.899      660217.123     2195680.005      660236.886
     2195675.695      660242.605     2195658.845      660264.963
     2195652.711      660273.103       2195643.3      660283.988
     2195636.148       660292.26     2195634.451      660294.223
     2195631.721      660297.381     2195620.084       660310.84
      2195612.71      660319.369     2195593.992      660341.018
     2195591.165      660344.289     2195589.628      660346.066
     2195577.161      660360.486     2195565.814       660373.61
     2195556.059      660384.893     2195545.282      660397.358
     2195542.822      660400.197     2195533.239      660411.254
     2195519.555      660427.043     2195517.752      660429.124
     2195496.187      660454.007     2195481.113        660471.4
     2195477.977      660475.018     2195475.549      660477.779
     2195472.439      660481.315     2195458.977      660496.626
     2195449.173      660507.775       2195443.2      660514.568
      2195425.66      660534.515     2195411.966      660550.089
     2195407.284       660555.75     2195403.991       660559.73
     2195402.253      660561.832     2195396.573      660568.699
     2195379.515      660589.321     2195374.305      660595.619
     2195364.322      660607.689     2195359.669      660613.314
     2195357.051      660616.479     2195345.443      660630.512
     2195334.399      660643.864     2195330.823      660648.188
     2195325.246      660654.929     2195323.256      660657.283
     2195315.352       660666.63     2195311.619      660671.046
     2195301.111      660683.472     2195288.503      660698.383
     2195287.307      660699.797     2195285.003      660702.521
     2195272.157      660717.714     2195265.465      660725.628
     2195257.384      660735.184     2195242.861      660752.359
     2195242.366      660752.944     2195241.543      660753.918
     2195219.747      660779.694      2195214.57      660785.816
     2195203.265      660799.186     2195198.717      660804.565
     2195196.738      660806.904     2195185.271      660820.466
     2195176.399      660830.958     2195173.936      660834.538
     2195170.117      660840.091     2195154.169      660863.275
     2195153.002      660864.971     2195139.063      660885.236
     2195134.443      660891.952     2195122.651      660909.096
     2195114.498      660920.948     2195101.168      660940.327
     2195094.523      660949.987     2195077.338       660974.97
     2195074.363      660979.296     2195073.224      660980.951
     2195054.884      661007.613     2195043.454      661024.231
     2195034.661      661037.014     2195027.207       661047.85
     2195022.374      661054.876     2195013.946      661065.379
     2195011.761      661068.102     2195007.581       661073.31
      2194991.88      661092.877     2194982.883      661104.088
     2194969.551      661120.701     2194964.353      661127.179
     2194947.555      661148.112      2194938.19      661159.783
     2194925.327      661175.812     2194922.755      661179.016
     2194918.355        661184.5      2194903.05      661203.573
     2194893.315      661215.704     2194881.304      661230.671
     2194873.806      661240.015     2194864.545      661251.556
      2194859.15      661258.278     2194854.112      661264.557
     2194849.404      661271.038     2194837.859      661286.931
     2194833.597      661292.799     2194821.277      661309.758
     2194818.227      661313.957     2194817.183      661315.394
     2194802.265      661335.931     2194796.358      661344.062
     2194784.279      661360.691     2194775.651      661372.567
     2194762.229      661391.045     2194754.863      661401.185
     2194754.448      661401.756      2194751.88      661405.792
      2194736.08       661430.62      2194731.22      661438.257
     2194717.386      661459.997     2194709.298      661472.706
      2194698.74      661489.297     2194686.972      661507.791
     2194681.966      661515.657      2194679.03      661518.499
     2194672.316      661525.001     2194653.013      661543.691
     2194642.857      661553.524     2194634.267      661561.841
     2194626.417      661569.442     2194614.691      661580.796
     2194600.514      661594.523     2194585.895      661608.678
      2194574.44      661619.769     2194556.929      661636.724
     2194552.582      661640.933     2194548.426      661644.957
     2194529.145      661663.626     2194522.021      661670.524
     2194518.881      661673.564     2194498.237      661695.906
     2194497.684      661696.503     2194497.543      661696.656
     2194482.855      661712.552     2194473.094      661723.115
      2194462.08      661735.034     2194448.927      661749.267
     2194430.129      661769.611     2194424.395      661775.816
     2194424.384       661775.83     2194417.069      661784.973
     2194402.263      661803.481     2194386.944       661822.63
     2194380.177      661831.089      2194373.65      661839.247
     2194357.993      661858.819     2194351.913      661866.419
     2194346.521      661878.101     2194341.309      661889.394
     2194332.406      661908.683     2194326.456      661921.575
     2194322.973      661929.121     2194320.849      661933.724
      2194316.74      661945.641     2194314.896      661950.989
     2194313.766      661954.263     2194308.296      661970.128
     2194302.156      661987.935     2194299.151      661996.649
     2194293.695       662012.47     2194290.316      662022.271
     2194286.344      662033.789     2194282.019       662046.33
     2194281.963      662049.311     2194281.813      662057.317
     2194281.629      662067.125     2194281.443      662077.085
     2194281.345      662082.305      2194281.23      662088.421
     2194281.017      662099.789     2194280.836      662109.427
     2194280.652      662119.258      2194280.44      662130.569
     2194280.304      662137.829     2194280.081      662149.717
     2194279.893      662159.743     2194279.819      662163.696
     2194279.648      662172.781     2194279.576      662176.656
     2194279.545      662178.315     2194279.442      662183.756
     2194279.149      662199.399     2194279.057      662204.311
     2194278.861      662214.782     2194278.751       662220.62
     2194278.557      662230.956     2194278.419      662238.328
     2194278.136      662253.423     2194277.497      662256.273
     2194277.209      662257.559     2194276.977      662258.593
      2194273.45      662274.322     2194269.973      662289.825
     2194269.182      662293.352     2194263.895       662316.93
     2194260.988      662329.896     2194258.995      662338.783
     2194257.216      662346.715     2194255.318      662355.179
     2194252.757      662366.602     2194250.807      662375.297
     2194248.219      662386.839      2194244.73      662402.395
     2194244.481      662403.505     2194240.908      662419.442
     2194238.122      662431.864     2194237.216      662435.906
     2194236.081      662440.967     2194231.724      662460.397
     2194230.246      662466.987     2194226.662      662476.591
     2194223.108      662486.118     2194218.005      662499.793
     2194215.793      662505.721     2194214.032       662510.44
     2194209.064      662523.753     2194203.274      662539.271
     2194202.226      662542.082     2194201.289      662544.592
     2194195.047      662561.321     2194188.764      662578.159
     2194186.205      662585.017     2194176.248        662611.7
     2194173.983      662617.771     2194171.435      662624.599
     2194167.083      662636.263      2194165.53      662640.426
     2194163.785      662646.025     2194161.377      662653.753
     2194158.786      662662.069     2194155.717      662671.918
     2194152.935      662680.845     2194150.454      662688.808
     2194147.976      662696.762     2194142.124      662715.541
     2194136.499      662733.595      2194133.93      662741.841
     2194131.146      662750.775     2194128.369      662759.685
     2194125.759      662768.063      2194123.07      662776.692
     2194120.286      662785.627     2194114.847      662803.083
     2194109.874      662819.043     2194109.469      662821.013
      2194106.59      662835.017     2194104.618      662844.613
     2194101.817      662858.237     2194100.914      662862.631
     2194098.589      662873.941     2194095.396      662889.474
     2194094.179      662895.399     2194089.937      662916.035
     2194088.413      662923.447     2194086.475      662932.876
     2194084.001      662944.912     2194078.765      662970.381
     2194078.711      662970.644      2194078.58      662971.285
     2194073.191      662997.499     2194071.165      663007.357
     2194067.281       663026.25     2194065.639      663034.237
     2194063.395      663045.159      2194062.26      663050.679
     2194061.984      663052.022     2194061.373      663054.465
     2194054.686      663081.213     2194054.349      663082.562
     2194054.068      663083.686     2194051.202       663095.15
     2194046.645      663113.377     2194046.222      663115.069
     2194045.681      663117.231      2194041.94      663132.197
     2194038.779      663144.842     2194036.629       663153.44
     2194033.645      663165.376     2194032.214        663171.1
     2194029.411      663177.246     2194024.609      663187.777
     2194017.593      663203.162      2194009.74      663220.381
     2194003.449      663234.176     2193997.701       663246.78
     2193994.947      663252.818     2193988.809      663266.277
     2193980.231      663285.087     2193978.128      663289.699
     2193965.517      663317.352     2193952.272      663346.395
     2193951.314      663348.496     2193950.755      663349.723
      2193941.95      663369.029     2193935.815      663382.481
     2193932.516      663389.716      2193925.09      663405.998
     2193924.785      663406.668      2193920.62      663414.106
     2193918.904      663417.169     2193903.361      663444.926
     2193893.062      663463.315     2193885.911      663476.086
     2193874.666      663496.165      2193869.22       663505.89
     2193866.106      663511.452     2193852.303        663536.1
     2193851.598      663537.007      2193845.86      663544.396
     2193830.127      663564.655     2193812.358      663587.535
     2193809.514      663591.198     2193808.995      663591.866
     2193790.156      663616.125     2193787.386      663619.691
     2193783.502      663624.694     2193765.742      663647.562
     2193757.817      663657.767     2193753.968      663661.585
      2193741.85      663673.608     2193738.952      663676.483
     2193734.532      663680.868     2193716.704      663698.556
     2193692.483      663722.586     2193691.377      663723.684
     2193691.049      663724.009     2193690.539      663724.515
     2193666.079      663748.782     2193660.482      663754.335
     2193650.923      663763.819     2193644.436      663770.255
     2193640.711      663773.951     2193629.197      663785.374
     2193615.467      663798.996     2193604.589      663809.788
     2193593.438      663820.852      2193589.43      663823.363
     2193582.036      663827.995      2193577.01      663831.144
     2193557.501      663843.366     2193553.268      663846.018
     2193541.111      663853.635     2193529.028      663861.205
     2193527.358      663862.252     2193524.988      663863.736
     2193513.629      663870.853     2193505.733        663875.8
     2193492.553      663884.057     2193486.008      663888.157
      2193483.22       663890.48     2193472.549      663899.373
      2193464.02       663906.48     2193449.407      663918.658
     2193436.108       663929.74     2193418.342      663944.546
     2193413.011      663948.989     2193408.527      663952.725