Geom Title=8XS
Program Version=5.00
Viewing Rectangle= 0 , 1 , 1 , 0 

River Reach=8XS             ,8XS             
Reach XY= 2 
0.733273056057870.933092224231470.203435804701630.14104882459313
Rch Text X Y=0.6008137,0.7350814
Reverse River Text= 0 

Type RM Length L Ch R = 1 ,1000    ,142.86,142.86,142.86
Node Last Edited Time=Feb/09/2015 08:53:20
#Sta/Elev= 80 
       0      40    4.52   39.89    9.24   39.76   14.24    39.7   21.74   39.59
   28.48   39.59   33.73   39.53   38.23   39.53   41.72   39.47   44.72   39.41
   49.22   39.41   53.97   39.29   59.96   39.23   65.96   39.23   69.46   39.23
   78.45   39.17   82.95   39.17    86.7   39.11   89.44   39.11   93.94   38.99
   97.19   38.99   100.1      39  102.58   37.84  104.85   35.63  106.36   33.41
   107.5    31.8  109.89   29.76  111.41   27.31  112.92   25.51  113.42   24.01
   116.7   22.75  120.23   19.88  121.74   16.95  123.76   14.97  124.76   13.59
  128.05    11.8   129.9      10     135     9.9   140.1     9.8  142.03    7.26
  144.74    4.49     150       2  155.92    1.84     160     2.2  161.12    2.55
  163.55     4.2  166.81    6.33  168.62    8.33     170     9.6     200    10.2
  203.12   11.67   206.6   13.16  210.07   14.47  212.85   15.88  217.36   17.72
  221.88   19.82  226.39   21.75  231.25   23.95  239.24   27.19  245.14   29.39
  249.65    31.4  254.86   33.33  259.03      35  264.93   37.28  267.01   38.16
     270    39.5  275.83   39.59  280.57   39.64  285.82   39.64  290.57   39.64
  299.81   39.64  307.56    39.7  318.05   39.94   323.8      40  332.54   40.06
  338.82   40.15  347.53   40.36  354.28   40.47  360.53    40.4     370    40.5
#Mann= 3 , 0 , 0 
       0    .035       0   140.1    .035       0     170    .035       0
Bank Sta=140.1,170
XS Rating Curve= 0 ,0
XS HTab Starting El and Incr=2.34,1, 38 
XS HTab Horizontal Distribution= 5 , 5 , 5 
Exp/Cntr=0.3,0.1

Type RM Length L Ch R = 1 ,857.142 ,142.86,142.86,142.86
Node Last Edited Time=Feb/09/2015 09:08:52
#Sta/Elev= 82 
       0   39.96    4.52   39.85    9.24   39.72   14.24   39.66   21.74   39.55
   28.48   39.55   33.73   39.49   38.23   39.49   41.72   39.43   44.72   39.37
   49.22   39.37   53.97   39.25   59.96   39.19   65.96   39.19   69.46   39.19
   78.45   39.12   82.95   39.12    86.7   39.07   89.44   39.07   93.94   38.95
   97.19   38.95   100.1   38.96  103.34   37.25   103.8   35.36   105.1   33.47
  106.87   31.86   109.4   29.95   111.3   28.16  113.42   27.19  116.19   24.97
  118.97   22.46  120.48    20.3  123.25   17.84  125.52   15.93  125.77   13.89
  128.29   11.62   129.9    9.95     135    9.85   140.1    9.76  142.03    7.22
  144.74    4.44     150    1.96  155.92     1.8     160    2.15  161.12     2.5
  163.55    4.15  166.81    6.28  168.62    8.28     170    9.56  181.22    9.82
  190.55    9.94     200   10.15  203.12   11.62   206.6   13.11  210.07   14.43
  212.85   15.84  217.36   17.67  221.88   19.77  226.39    21.7  231.25   23.91
  239.24   27.15  245.14   29.34  249.65   31.35  254.86   33.29  259.03   34.96
  264.93   37.24  267.01   38.12     270   39.46  275.83   39.55  280.57    39.6
  285.82    39.6  290.57    39.6  299.81    39.6  307.56   39.66  318.05    39.9
   323.8   39.96  332.54   40.02  338.82   40.11  347.53   40.32  354.28   40.43
  360.53   40.36     370   40.46
#Mann= 3 , 0 , 0 
       0    .035       0   140.1    .035       0     170    .035       0
Bank Sta=140.1,170
XS Rating Curve= 0 ,0
XS HTab Starting El and Incr=2.3,1, 38 
XS HTab Horizontal Distribution= 5 , 5 , 5 
Exp/Cntr=0.3,0.1

Type RM Length L Ch R = 1 ,714.285 ,142.86,142.86,142.86
Node Last Edited Time=Feb/09/2015 09:08:56
#Sta/Elev= 61 
       0   39.91    3.76   39.89   11.99   39.76   19.49   39.76   25.48   39.76
   36.23   39.53   47.47   39.53   53.72   39.53   62.46   39.35    72.7   39.17
    81.2   39.11   92.94   39.11     100   38.91  103.09   36.41  103.44   34.14
  104.85    31.2  107.95   28.28  108.13   25.63  109.09   23.12   110.8   17.57
  114.68   15.21  115.91    13.3   122.5    11.2     130    9.91     140    9.71
  140.99    8.38  142.03    7.17  143.35    5.79  144.74     4.4  147.24    2.77
     150    1.91  151.89    1.83  155.92    1.75     160    2.11  161.12    2.46
  163.55    4.11  166.81    6.24  168.62    8.24     170    9.51  183.49    9.76
     200   10.11  209.09   11.42  218.75    13.3  230.11   17.17  238.64   20.54
  244.32   22.83  248.86    25.7  253.41   29.47  257.39   32.95     270   39.41
  276.33   39.41  281.82   39.41  290.32   39.41  297.56   39.47  305.56   39.59
  319.05   39.59  330.79   39.76  340.04      40  353.03   40.24  365.02   40.36
     370   40.41
#Mann= 3 , 0 , 0 
       0    .035       0     140    .035       0     170    .035       0
Bank Sta=140,170
XS Rating Curve= 0 ,0
XS HTab Starting El and Incr=2.25,1, 38 
XS HTab Horizontal Distribution= 5 , 5 , 5 
Exp/Cntr=0.3,0.1

Type RM Length L Ch R = 1 ,571.428 ,142.86,142.86,142.86
Node Last Edited Time=Feb/09/2015 09:08:59
#Sta/Elev= 87 
       0   39.87    3.39   39.72    7.25   39.64   14.49   39.47   19.49   39.41
   23.49   39.41   27.98   39.35   33.73   39.23   39.48   39.23   46.47   39.17
   52.97   39.17   59.96   39.05   68.96   38.99   73.95   38.93    78.7   38.99
    87.7   38.88   95.69   38.93     100   38.87  101.04   37.81  102.78   35.79
  103.47   34.47  105.21   32.63  107.29   30.44  110.07   28.16  112.15   26.14
  114.24   24.21  116.32   22.37   118.4   20.44  119.79   19.12  121.53   17.46
  123.26   15.88     125   14.39  126.39   12.81  128.12   11.49     130    9.87
     140    9.67  140.99    8.34  142.03    7.13  143.35    5.75  144.74    4.36
  147.24    2.73     150    1.87  151.89    1.79  155.92    1.71     160    2.07
  161.12    2.42  163.55    4.07  166.81     6.2  168.62     8.2     170    9.47
     185    9.64     200   10.07  202.78   11.23  206.25   12.72  209.38   14.04
  213.54   15.79  217.01   17.28  220.49   18.95  224.31   20.61  227.43   22.02
  230.56   23.51  234.03      25  238.19   26.49  240.62   27.63   244.1   29.04
  247.57   30.44  251.04   31.93  254.17   33.16   256.6   34.12  258.68      35
  261.11   35.96  263.54   37.11  266.32   38.25     270   39.37  278.08   39.41
  287.82   39.47  294.82   39.59  304.31   39.76  310.56   39.76  318.55   39.88
  327.55   40.06  335.29   40.06  343.04   40.06  350.03   40.24  358.03   40.36
  365.52   40.36     370   40.37
#Mann= 3 , 0 , 0 
       0    .035       0     140    .035       0     170    .035       0
Bank Sta=140,170
XS Rating Curve= 0 ,0
XS HTab Starting El and Incr=2.21,1, 38 
XS HTab Horizontal Distribution= 5 , 5 , 5 
Exp/Cntr=0.3,0.1

Type RM Length L Ch R = 1 ,428.571 ,142.86,142.86,142.86
Node Last Edited Time=Feb/09/2015 09:09:03
#Sta/Elev= 72 
       0   40.33    5.27   40.34   11.99   40.36   17.24    40.3   24.98   40.18
   36.23   40.12   42.72      40   52.47   39.82   60.21   39.82   70.96    39.7
   77.95   39.64   86.45   39.53   93.44   39.47     100   39.33  108.33   35.53
  114.93   32.81  120.49    30.7  126.74   28.16  131.94   26.14  137.15   24.04
  143.06   21.67  146.88   20.09  151.74   18.07   155.9   16.32  160.07   14.47
  165.97   11.84     170   10.03  183.99    9.52     200    9.43  201.38    8.16
  203.19    6.16  206.45    4.03  208.88    2.38     210    2.03  214.08    1.67
  218.11    1.75     220    1.83  222.76    2.69  225.26    4.32  226.65    5.71
  227.97    7.09  229.01     8.3  229.45    9.06  229.87    9.34     230    9.63
     240    9.83  242.36   11.75   243.4   13.25  245.83   15.61  248.61   18.33
  251.74   20.96  254.86   24.12  257.29   27.02  260.76   30.53  264.58   33.68
  267.71   36.58     270   38.83  277.33   38.99  285.32   39.11  291.32   39.17
  298.56   39.23  305.56   39.23  311.31   39.29   317.8   39.29   324.8   39.35
  331.29   39.41  339.54   39.53  344.78   39.53  352.28   39.53  358.78   39.64
  363.52   39.76     370   39.83
#Mann= 3 , 0 , 0 
       0    .035       0     200    .035       0     230    .035       0
Bank Sta=200,230
XS Rating Curve= 0 ,0
XS HTab Starting El and Incr=2.17,1, 38 
XS HTab Horizontal Distribution= 5 , 5 , 5 
Exp/Cntr=0.3,0.1

Type RM Length L Ch R = 1 ,285.714 ,142.86,142.86,142.86
Node Last Edited Time=Feb/09/2015 09:06:30
#Sta/Elev= 79 
       0   39.79    5.64   39.63    9.49   39.53   16.24   39.47   22.74   39.41
   29.98   39.47   37.23   39.35   42.97   39.29   47.72   39.29   55.22   39.23
   60.71   39.29   68.71   39.23    78.2   39.11   88.19   38.93   94.94   38.93
     100   38.79  101.74   37.19  103.47   35.18  105.56   32.81  108.33   30.35
  110.76   27.72  113.19   25.18  115.97   22.72   118.4   20.44  121.53   17.81
  124.31   15.53  126.39   13.68  128.12   12.02     130    9.79  135.35     9.7
     140    9.59  140.99    8.26  142.03    7.05  143.35    5.67  144.74    4.28
  147.24    2.65     150    1.79  151.89    1.71  155.92    1.63     160    1.99
  161.12    2.34  163.55    3.99  166.81    6.12  168.62    8.12     170    9.39
  179.96    9.46  192.82    9.82     200    9.99  204.17   11.67  207.64   13.16
  211.11   14.65  214.58   16.14  218.75   18.07  222.57   19.39  226.39   21.14
  230.21   22.72  233.33   24.21  237.85   26.14  242.71   28.07  246.88      30
     250    31.4  253.47   32.81  257.64   34.47  262.15   36.49  266.58   37.99
     270   39.29  275.83   39.41  283.82   39.41  291.57   39.59  300.06   39.64
  306.06   39.76  313.55   39.82  320.05   39.94  327.55   39.88  333.79   39.88
  342.04   40.06  349.53   40.06  359.28   40.18     370   40.29
#Mann= 3 , 0 , 0 
       0    .035       0     140    .035       0     170    .035       0
Bank Sta=140,170
XS Rating Curve= 0 ,0
XS HTab Starting El and Incr=2.13,1, 38 
XS HTab Horizontal Distribution= 5 , 5 , 5 
Exp/Cntr=0.3,0.1

Type RM Length L Ch R = 1 ,142.857 ,142.86,142.86,142.86
Node Last Edited Time=Feb/09/2015 09:06:17
#Sta/Elev= 88 
       0   39.74    6.02   39.63   11.99   39.53   16.49   39.53   22.49   39.59
   27.48   39.53   32.73   39.47   38.23   39.41   43.22   39.35   48.22   39.23
   54.72   39.23   59.71   39.23   65.21   39.17   69.96   39.11    76.2   39.11
    82.2   39.11   88.44   38.99   94.19   38.88     100   38.74  101.74   37.11
  103.12    35.7  104.86   33.77  107.29   31.58  109.03      30  110.76   27.98
   112.5   26.05  114.93   23.95  116.67   22.19  118.75   20.26  120.49   18.68
  122.57   17.02  124.31   15.35  126.04   13.07  128.12    11.4     130    9.74
   135.1    9.46     140    9.54  140.99    8.21  142.03       7  143.35    5.62
  144.74    4.23  147.24     2.6     150    1.74  151.89    1.66  155.92    1.58
     160    1.94  161.12    2.29  163.55    3.94  166.81    6.07  168.62    8.07
     170    9.34   184.5    9.52     200    9.94  203.12   11.14  206.25   12.72
  209.38   14.21  213.89   16.23  218.75   18.16  223.96   20.35  228.82   22.46
  234.38   24.65  239.58   26.67   243.4   28.33  246.88   29.82     250   31.32
  254.86   32.81  259.03   34.47  261.59   35.68  264.24   37.02  268.06   38.33
     270   39.24  275.08   39.23  281.82   39.23  288.82   39.41  295.07   39.47
  301.06   39.53  308.06   39.53   315.3    39.7  321.05    39.7   326.3   39.76
  333.29   39.82  338.79   39.88  344.53   39.88  350.53   39.88  356.28   39.94
  362.27   40.24  365.52   40.24     370   40.24
#Mann= 3 , 0 , 0 
       0    .035       0     140    .035       0     170    .035       0
Bank Sta=140,170
XS Rating Curve= 0 ,0
XS HTab Starting El and Incr=2.08,1, 38 
XS HTab Horizontal Distribution= 5 , 5 , 5 
Exp/Cntr=0.3,0.1

Type RM Length L Ch R = 1 ,0       ,0,0,0
Node Last Edited Time=Feb/04/2015 14:00:53
#Sta/Elev= 74 
       0    39.7    6.02   39.72   12.49   39.64   18.74   39.64   23.99   39.59
   29.23   39.53   34.98   39.53   42.22   39.35   49.72   39.11   58.21   39.11
   65.21   39.05   74.95   39.11    82.2   39.05    87.2   38.82   92.19   38.82
     100    38.7  102.08   36.93  103.82   34.91  106.25   32.37  107.99   30.35
  110.07   28.51  112.15   26.32  114.24   24.47  116.67   22.11  119.44    19.3
  121.88   16.93  124.31   14.65  126.74   12.11     130     9.7     140     9.5
  140.99    8.17  142.03    6.96  143.35    5.58  144.74    4.19  147.24    2.56
     150     1.7  151.89    1.62  155.92    1.54     160     1.9  161.12    2.25
  163.55     3.9  166.81    6.03  168.62    8.03     170     9.3     200     9.9
  204.86   12.11  209.03   13.77  212.85   15.44  218.06   17.81  222.57   19.74
  227.08   21.84  232.29   23.68  237.85   25.79   243.4   28.07  247.57   29.91
  252.43   32.02   256.6    33.6  261.81   35.79  266.32   37.37     270    39.2
  273.83   39.23  280.57   39.41  286.57   39.35  291.57   39.47  297.31   39.53
  305.06   39.59  311.06   39.59  321.05   39.82  332.79   39.82  340.79   39.82
  350.03      40  357.03      40  364.02   40.12     370    40.2
#Mann= 3 , 0 , 0 
       0    .035       0     140    .035       0     170    .035       0
Bank Sta=140,170
XS Rating Curve= 0 ,0
XS HTab Starting El and Incr=2.04,1, 38 
XS HTab Horizontal Distribution= 5 , 5 , 5 
Exp/Cntr=0.3,0.1

LCMann Time=Dec/30/1899 00:00:00
LCMann Table=0
Chan Stop Cuts=-1 



Use User Specified Reach Order=0
GIS Ratio Cuts To Invert=-1
GIS Limit At Bridges=0
Composite Channel Slope=5
