Geom Title=Complex network with Open Air Gates
Program Version=5.00
Viewing Rectangle=-0.1488 , 0.8917 , 0.967 , 0.0631 

River Reach=Reach 1         ,A               
Reach XY= 2 
0.211895910780670.884758364312270.799256505576210.22676579925651
Rch Text X Y=0.3587361,0.7202602
Reverse River Text= 0 

Type RM Length L Ch R = 1 ,1000    ,100,100,100
XS GIS Cut Line=5
0.294144981412640.958178438661710.228345724907060.89944237918216
0.211895910780670.884758364312270.195446096654280.87007434944238
0.155966542750930.83483271375465
Node Last Edited Time=Dec/12/2005 15:04:34
#Sta/Elev= 8 
       0     100      10      90     100      89     110      80     140      80
     150      90     200      91     210     100
#Mann= 3 , 0 , 0 
       0     .04       0     100    .035       0     150     .04       0
Bank Sta=100,150
XS Rating Curve= 0 ,0
XS HTab Horizontal Distribution= 5 , 5 , 5 
Exp/Cntr=0.3,0.1

Type RM Length L Ch R = 1 ,900.*   ,100,100,100
XS GIS Cut Line=5
0.352881040892190.892379182156140.287081784386620.83364312267658
0.270631970260220.818959107806690.254182156133830.80427509293681
0.214702602230480.76903345724907
Node Last Edited Time=Dec/12/2005 15:06:40
#Sta/Elev= 8 
       0   99.98      10   89.98     100   88.98     110   79.98     140   79.98
     150   89.98     200   90.98     210   99.98
#Mann= 3 , 0 , 0 
       0     .04       0     100    .035       0     150     .04       0
Bank Sta=100,150
XS Rating Curve= 0 ,0
XS HTab Horizontal Distribution= 5 , 5 , 5 
Exp/Cntr=0.3,0.1

Type RM Length L Ch R = 6 ,899     ,,,
Node Last Edited Time=Aug/03/2006 10:43:02
Lateral Weir Pos= 3 
Lateral Weir End=                ,                ,        ,SA 1            
Lateral Weir Distance=1
Lateral Weir TW Multiple XS=0
Lateral Weir WD=15
Lateral Weir Coef=2
Lateral Weir WSCriteria=-1 
Lateral Weir Flap Gates= 0 
Lateral Weir Hagers EQN= 0 ,,,,,
Lateral Weir SS=0.05,0.05,
Lateral Weir Type= 0 
Lateral Weir Connection Pos and Dist= 0 ,
Lateral Weir SE= 2 
       0      99     500      98
Lateral Weir Centerline= 0 
LW Gate Name Wd,H,Inv,GCoef,Exp_T,Exp_O,Exp_H,Type,WCoef,Is_Ogee,SpillHt,DesHd,#Openings
Gate #1     ,10,7.5,91,,0,1,0.5, 3 ,3.2, 0 ,,, 1 ,0,0.8, 0 ,,,-1,0,0, 0 
     250
LW Div RC= 0 ,False,

Type RM Length L Ch R = 1 ,800.*   ,100,100,100
XS GIS Cut Line=5
0.411617100371750.826579925650560.345817843866170.76784386617101
0.329368029739780.753159851301120.312918215613380.73847583643123
0.27343866171004 0.7032342007435
Node Last Edited Time=Dec/12/2005 15:06:40
#Sta/Elev= 8 
       0   99.96      10   89.96     100   88.96     110   79.96     140   79.96
     150   89.96     200   90.96     210   99.96
#Mann= 3 , 0 , 0 
       0     .04       0     100    .035       0     150     .04       0
Bank Sta=100,150
XS Rating Curve= 0 ,0
XS HTab Horizontal Distribution= 5 , 5 , 5 
Exp/Cntr=0.3,0.1

Type RM Length L Ch R = 1 ,700.*   ,100,100,100
XS GIS Cut Line=5
 0.47035315985130.760780669144990.404553903345730.70204460966543
0.388104089219330.687360594795540.371654275092940.67267657992565
0.332174721189590.63743494423792
Node Last Edited Time=Dec/16/2005 13:53:53
#Sta/Elev= 8 
       0   99.94      10   89.94     100   88.94     110   79.94     140   79.94
     150   89.94     200   90.94     210   99.94
#Mann= 3 , 0 , 0 
       0     .04       0     100    .035       0     150     .04       0
Bank Sta=100,150
XS Rating Curve= 0 ,0
XS HTab Horizontal Distribution= 5 , 5 , 5 
Exp/Cntr=0.3,0.1

Type RM Length L Ch R = 1 ,600.*   ,100,100,100
XS GIS Cut Line=5
0.529089219330860.694981412639410.463289962825280.63624535315985
0.446840148698890.621561338289970.430390334572490.60687732342008
0.390910780669150.57163568773235
Node Last Edited Time=Dec/12/2005 15:06:40
#Sta/Elev= 8 
       0   99.92      10   89.92     100   88.92     110   79.92     140   79.92
     150   89.92     200   90.92     210   99.92
#Mann= 3 , 0 , 0 
       0     .04       0     100    .035       0     150     .04       0
Bank Sta=100,150
XS Rating Curve= 0 ,0
XS HTab Horizontal Distribution= 5 , 5 , 5 
Exp/Cntr=0.3,0.1

Type RM Length L Ch R = 1 ,500.*   ,100,100,100
XS GIS Cut Line=5
0.587825278810410.629182156133830.522026022304830.57044609665428
0.505576208178440.555762081784390.48912639405205 0.5410780669145
 0.44964684014870.50583643122677
Node Last Edited Time=Dec/12/2005 15:06:40
#Sta/Elev= 8 
       0    99.9      10    89.9     100    88.9     110    79.9     140    79.9
     150    89.9     200    90.9     210    99.9
#Mann= 3 , 0 , 0 
       0     .04       0     100    .035       0     150     .04       0
Bank Sta=100,150
XS Rating Curve= 0 ,0
XS HTab Horizontal Distribution= 5 , 5 , 5 
Exp/Cntr=0.3,0.1

Type RM Length L Ch R = 1 ,400.*   ,100,100,100
XS GIS Cut Line=5
0.646561338289960.563382899628260.58076208178439 0.5046468401487
0.564312267657990.48996282527881 0.54786245353160.47527881040893
0.508382899628250.44003717472119
Node Last Edited Time=Dec/12/2005 15:06:40
#Sta/Elev= 8 
       0   99.88      10   89.88     100   88.88     110   79.88     140   79.88
     150   89.88     200   90.88     210   99.88
#Mann= 3 , 0 , 0 
       0     .04       0     100    .035       0     150     .04       0
Bank Sta=100,150
XS Rating Curve= 0 ,0
XS HTab Horizontal Distribution= 5 , 5 , 5 
Exp/Cntr=0.3,0.1

Type RM Length L Ch R = 1 ,300.*   ,100,100,100
XS GIS Cut Line=5
0.705297397769520.497583643122680.639498141263940.43884758364313
0.623048327137550.424163568773240.606598513011150.40947955390335
0.567118959107810.37423791821562
Node Last Edited Time=Oct/24/2011 12:20:06
#Sta/Elev= 8 
       0   99.86      10   89.86     100   88.86     110   79.86     140   79.86
     150   89.86     200   90.86     210   99.86
#Mann= 3 , 0 , 0 
       0     .04       0     100    .035       0     150     .04       0
#XS Ineff= 2 , 0 
       0      97      95     153       0      95
Permanent Ineff=
       F       F
Bank Sta=100,150
XS Rating Curve= 0 ,0
XS HTab Horizontal Distribution= 5 , 5 , 5 
Exp/Cntr=0.3,0.1

Type RM Length L Ch R = 5 ,250     ,,,
Node Last Edited Time=Oct/24/2011 12:20:06
IW Pilot Flow=0
#Inline Weir SE= 2 
       0      95     210      95
IW Dist,WD,Coef,Skew,MaxSub,Min_El,Is_Ogee,SpillHt,DesHd
10,80,2.6,0,0.95,, 0 ,,,0,0,
IW Gate Name Wd,H,Inv,GCoef,Exp_T,Exp_O,Exp_H,Type,WCoef,Is_Ogee,SpillHt,DesHd,#Openings
Gate #1     ,6,6,89,,0,1,0.5, 3 ,3.2, 0 ,,, 2 ,0,0.8, 0 ,,,-1,0,0, 10 
     110     140
IW Gate Name Wd,H,Inv,GCoef,Exp_T,Exp_O,Exp_H,Type,WCoef,Is_Ogee,SpillHt,DesHd,#Openings
Gate #2     ,4,5,87,0.6,0,1,0.5, 2 ,2.6, 0 ,,, 1 ,0,0.8, 0 ,0.6,,0,0,0, 0 
     125
Inline Weir Flap Gates= 0 

Type RM Length L Ch R = 1 ,200.*   ,100,100,100
XS GIS Cut Line=5
0.764033457249070.43178438661711 0.69823420074350.37304832713755
 0.68178438661710.358364312267660.665334572490710.34368029739777
0.625855018587360.30843866171004
Node Last Edited Time=Dec/12/2005 15:06:40
#Sta/Elev= 8 
       0   99.84      10   89.84     100   88.84     110   79.84     140   79.84
     150   89.84     200   90.84     210   99.84
#Mann= 3 , 0 , 0 
       0     .04       0     100    .035       0     150     .04       0
Bank Sta=100,150
XS Rating Curve= 0 ,0
XS HTab Horizontal Distribution= 5 , 5 , 5 
Exp/Cntr=0.3,0.1

Type RM Length L Ch R = 1 ,100.*   ,100,100,100
XS GIS Cut Line=5
0.822769516728630.365985130111530.756970260223050.30724907063198
0.740520446096660.292565055762090.72407063197026 0.2778810408922
0.684591078066920.24263940520447
Node Last Edited Time=Dec/12/2005 15:06:40
#Sta/Elev= 8 
       0   99.82      10   89.82     100   88.82     110   79.82     140   79.82
     150   89.82     200   90.82     210   99.82
#Mann= 3 , 0 , 0 
       0     .04       0     100    .035       0     150     .04       0
Bank Sta=100,150
XS Rating Curve= 0 ,0
XS HTab Horizontal Distribution= 5 , 5 , 5 
Exp/Cntr=0.3,0.1

Type RM Length L Ch R = 1 ,0.0     ,0,0,0
XS GIS Cut Line=5
0.881505576208180.30018587360595 0.8157063197026 0.2414498141264
0.799256505576210.226765799256510.782806691449820.21208178438662
0.743327137546470.17684014869889
Node Last Edited Time=Dec/12/2005 15:06:29
#Sta/Elev= 8 
       0    99.8      10    89.8     100    88.8     110    79.8     140    79.8
     150    89.8     200    90.8     210    99.8
#Mann= 3 , 0 , 0 
       0     .04       0     100    .035       0     150     .04       0
Bank Sta=100,150
XS Rating Curve= 0 ,0
XS HTab Horizontal Distribution= 5 , 5 , 5 
Exp/Cntr=0.3,0.1

Storage Area=SA 1            ,0.3096491,0.4898635
Storage Area Surface Line= 19 
0.568421052631580.37368421052632                
0.510526315789470.43684210526316                
0.450877192982460.50350877192983                
0.394736842105260.56842105263158                
0.335087719298250.63508771929825                
0.277192982456140.70526315789474                
0.215789473684210.76666666666667                
0.150877192982460.77368421052632                
0.080701754385960.72105263157895                
0.033333333333330.63684210526316                
0.049122807017540.54912280701754                
0.08245614035088             0.5                
0.224561403508770.33859649122807                
0.298245614035090.26491228070175                
0.375438596491230.21052631578947                
0.459649122807020.21578947368421                
0.517543859649120.28421052631579                
0.549122807017540.33333333333333                
0.568421052631580.37368421052632                
Storage Area Type= 0 
Storage Area Area=25
Storage Area Min Elev=90
Storage Area Vol Elev= 1 
               0
Storage Area Is2D=0
Storage Area Point Generation Data=,,,
Storage Area 2D Points= 0 
Storage Area 2D PointsPerimeterTime=11Dec2014 16:00:15
Storage Area Mannings=0.06
2D Cell Volume Filter Tolerance=0.01
2D Face Profile Filter Tolerance=0.01
2D Face Area Elevation Profile Filter Tolerance=0.01
2D Face Area Elevation Conveyance Ratio=0.02

Storage Area=SA 2            ,0.0919799,0.268797
Storage Area Surface Line= 15 
0.301754385964910.25789473684211                
0.17894736842105 0.3859649122807                
0.047368421052630.54561403508772                
-0.02982456140350.52105263157895                
-0.0964912280701 0.4280701754386                
-0.10701754385960.37368421052632                
 -0.1385964912280.21754385964912                
-0.07017543859640.15263157894737                
-0.02456140350870.11052631578947                
0.08771929824561 0.0719298245614                
0.201754385964910.08947368421053                
0.308771929824560.17368421052632                
0.315789473684210.21052631578947                
0.312280701754390.22456140350877                
0.301754385964910.25789473684211                
Storage Area Type= 0 
Storage Area Area=10
Storage Area Min Elev=90
Storage Area Vol Elev= 1 
               0
Storage Area Is2D=0
Storage Area Point Generation Data=,,,
Storage Area 2D Points= 0 
Storage Area 2D PointsPerimeterTime=11Dec2014 16:00:15
Storage Area Mannings=0.06
2D Cell Volume Filter Tolerance=0.01
2D Face Profile Filter Tolerance=0.01
2D Face Area Elevation Profile Filter Tolerance=0.01
2D Face Area Elevation Conveyance Ratio=0.02

Connection=SA1toSA2        ,0.1324029,0.4279201
Connection Desc=
Connection Line=2
          0.1336          0.4414          0.1468           0.426
Connection Last Edited Time=Oct/24/2011 12:20:06
Connection Up SA=SA 1            
Connection Dn SA=SA 2            
Conn Routing Type= 2 
Conn Use RC Family=True
Conn OverFlow Method 2D=True
Conn Weir WD=5
Conn Weir Coef=2.6
Conn Weir Is Ogee= 0 
Conn Simple Spill Pos Coef=0.05
Conn Simple Spill Neg Coef=0.05
Conn Weir SE= 2 
       0      97     100      97
Conn Gate Name Wd,H,Inv,GCoef,Exp_T,Exp_O,Exp_H,Type,WCoef,Is_Ogee,SpillHt,DesHd,#Openings
Gate #1     ,6,5,92,,0,1,0.5, 3 ,3.2, 0 ,,, 1 ,0,0.8, 0 ,,,-1,0,0, 0 
      50

LCMann Time=Dec/30/1899 00:00:00
LCMann Region Time=Dec/30/1899 00:00:00
LCMann Table=0
Chan Stop Cuts=-1 



Use User Specified Reach Order=0
User Specified Reach Order=Reach 1         ,A               
GIS Ratio Cuts To Invert=-1
GIS Limit At Bridges=0
Composite Channel Slope=5
