Geom Title=1D-2D Dam Break Model Refined Grid
Program Version=5.03
Viewing Rectangle= 1965043.85 , 2092643.59732271 , 373757.900984197 , 286644 

River Reach=Bald Eagle Cr.  ,Lock Haven      
Reach XY= 137 
 1968492.2143339  289524.5233343 1968872.3141478  289974.6428742
 1969142.3862958  290264.7179319 1969182.3963561  290614.8102005
  1969162.391326  290934.8949239 1969122.3812657  291224.9721021
 1969062.3640547  291705.0991872 1968982.3439341  292095.2015161
 1968912.3242081  292515.3113903  1968902.321693  292775.3810232
 1969052.3615396  293125.4732918 1969312.4311726  293355.5332591
 1969592.5037152  293475.5655605 1969932.5934687  293745.6377085
 1970142.6505263  294085.7253415 1970512.7478251  294505.8373362
 1970722.8027622  294765.9048486 1970982.8702746  295005.9694514
 1971533.0170857  295246.0319337 1971993.1370202  295456.0868708
 1972363.2343189  295576.1191722 1972583.2938916  295616.1292325
 1972933.3861602  295586.1216873 1973263.4733987  295436.0818407
 1973473.5283358  295176.0143282 1973723.5933331  294905.9421802
 1973983.6629661   294675.882213 1974313.7502046  294405.8100649
 1974593.8227472   294275.777369 1974873.8974103  294245.7677032
 1975203.9846488  294295.7823991 1975554.0769174    294415.81258
 1975844.1540956  294375.8025197 1976164.2366984  294265.7748539
 1976494.3239369  294205.7576429 1976754.3935699  294265.7748539
 1977024.4635974  294355.7974896 1977444.5755921  294515.8398513
 1977724.6481346  294705.8897582 1977984.7177676  294965.9593912
 1978134.7576142  295196.0193584 1978364.8175814  295456.0868708
  1978504.854913  295646.1388983 1978744.9173953  295796.1766244
  1979105.012179  296176.2785587 1979395.0893572  296466.3536164
 1979745.1816258  296856.4580658 1980055.2638341  297216.5528495
 1980275.3212863  297576.6476332 1980455.3686781  297986.7549923
 1980765.4508864  298296.8372006 1981175.5582455  298806.9718309
 1981345.6031223  299077.0418585 1981605.6727552  299317.1064613
 1981825.7302074  299517.1588833  1982175.822476  299757.2213656
 1982425.8895939  300027.2935136 1982585.9319556   300287.361026
  1982645.947046  300507.4205987 1982856.0019831  300727.4780508
 1983066.0569202  300997.5480783  1983306.121523  301327.6353168
 1983666.2163067  301667.7250704 1983996.3035452  301947.7997335
 1984286.3786028   302287.889487 1984646.4755071  302647.9842707
 1984966.5581099  302848.0366927 1985206.6227127  303018.0815695
 1985476.6927403  303258.1461723  1985646.737617  303478.2036245
  1985836.787524  303698.2610766 1986066.8496117  303978.3357397
 1986296.9095789  304198.3931919 1986616.9943023  304428.4531591
 1987037.1041765  304598.4980358 1987337.1838697  304798.5504578
 1987617.2585328  305008.6075154 1988027.3658919  305228.6649676
 1988257.4258591  305388.7073293 1988587.5130976  305618.7672965
 1988897.5953059   305948.854535 1989247.6875745  306238.9317132
 1989437.7374815  306458.9891653 1989667.7995692  306799.0789188
  1989777.827235  307169.1762176 1990107.9144735  307649.3033027
 1990518.0218325  308159.4379331 1990748.0839203   308559.542777
 1990968.1413724  309099.6849526 1991228.2110054  309569.8095226
 1991558.2982439  309999.9240324 1991788.3582111  310229.9839996
 1991938.3980577  310600.0812983 1992018.4181783  311080.2083834
 1992098.4404194  311320.2708657 1992328.5003866  311810.4004659
   1992648.58511  312360.5451565 1993008.6798937  312750.6474855
 1993358.7721624  313030.7221486 1993748.8744913  313170.7594801
   1994118.97179  313170.7594801 1994459.0615436  313060.7296938
  1994849.165993   312890.684817 1995219.2632918  312620.6147895
 1995659.3781961   312490.579973 1996069.4876757  312380.5501867
 1996429.5824594  312300.5300661 1996839.6898184  312210.5053099
  1997179.779572  312230.5103401 1997629.8991119  312270.5225209
 1998070.0140162  312350.5426415 1998610.1561917  312570.6000936
 1999000.2606412  312770.6546361 1999440.3755454  313000.7146033
 1999900.4976004  313250.7796007 2000310.6049595  313590.8693543
 2000700.7072884  314091.0014695 2001060.8041926  314581.1310697
 2001300.8666749  314881.2107629 2001560.9341873  315321.3256672
 2001760.9887299  315661.4154208 2001971.0436669  316031.5127196
 2002141.0885437  316321.5898977 2002401.1560561  316651.6771362
 2002641.2206589  317011.7719199 2002891.2856563  317251.8365227
   2003251.38044  317661.9438818  2003711.502495  318112.0634217
 2004141.6148842  318492.1632355 2004661.7520296  318992.2953508
 2005071.8615092  319372.3951646 2005702.0263204  319972.5524306
  2006122.138315  320382.6619102 2006592.2628851  320852.7843597
  2006982.365214  321192.8741132   2007582.52248  321713.0112586
2007750.91979976321863.432174936
Rch Text X Y=1993148.2289745,305718.8274359
Reverse River Text= 0 
Reach Downstream Storage Area=BaldEagleCr     

Type RM Length L Ch R = 1 ,137520  ,478.524,571.848,590.293
XS GIS Cut Line=4
1966056.93801669291992.6868693731968654.89250785290155.915929365
1969035.48428343289973.8943290081969647.74126343289642.944036973
Node Last Edited Time=Nov/06/2006 08:56:17
#Sta/Elev= 295 
       0  849.52    6.44  848.78    21.1  846.77   32.63  845.12   40.78  843.82
   58.81  839.45   84.33  832.57   85.48  832.26  111.19  827.35  130.19   823.5
  147.56  817.81  163.58  812.59  174.89  808.69  189.76  805.14   210.8  800.01
   219.6  797.87  242.14   792.3  264.31  786.91  268.34  785.31  274.03  783.14
  294.53  775.34  309.01  770.12  320.71  767.37  337.27  763.53   346.9   761.4
  353.72   759.9  373.09  753.05  398.43  743.92  399.29  743.74   400.5  743.48
  425.48  738.53  443.13  735.26  451.67  732.91  463.73  730.18  487.84  725.01
  504.04  723.38  526.97  721.41  532.55  720.97  556.43  719.26  577.25  718.15
   590.2  717.49   608.8  716.63  621.96  716.63     635   716.8  653.43  717.34
  661.19  717.44  666.67  717.49  687.38  717.78  711.37  717.96  713.57  717.97
  716.67  717.97  739.76  717.93  756.08  717.74  765.95   717.5   779.9  716.86
  800.79  715.59  818.33  714.51  843.14  713.21  844.52  713.13  845.49  713.09
  870.71  711.86   890.2  711.32   896.9  710.89  906.37  710.63  934.91  709.76
  949.28  709.38   969.6  708.89  975.47  708.73  979.61  708.61 1001.66  707.27
 1024.32     706 1027.85  705.87 1032.84  705.69 1054.04  704.87 1069.03  704.31
 1080.23   703.5 1096.07  702.47 1106.42  701.73 1113.73  701.37 1132.61  700.99
 1158.44  700.67  1159.3  700.67 1184.99  700.69 1203.15  700.58 1211.18  700.73
 1222.54  700.25 1247.85  699.44 1263.56  699.06 1285.77  697.99 1289.75  697.89
 1292.56  697.81 1315.94  696.67 1337.27  695.17 1342.13  695.01    1349   694.7
 1368.32  694.24 1381.97  693.78 1394.51  693.01 1412.24  691.77  1420.7  691.28
 1426.68  691.12 1461.53  691.74 1471.39  691.86 1473.08  691.89 1475.47  692.04
 1499.27     693 1516.09  694.08 1525.46  694.63  1538.7  695.81 1551.65  696.92
  1560.8   697.8 1601.94  700.37 1604.03  700.49 1605.51  700.57 1630.22   701.8
 1650.21  702.33 1656.41  702.66 1665.17  702.96  1682.6  703.46 1694.92  703.51
 1708.79  703.89 1728.41  703.36 1734.98   703.2 1739.63  702.84  1766.7  701.16
 1784.33  700.15 1787.36  699.93 1791.64  699.52 1813.55   697.3 1829.04  695.41
 1839.74  693.41 1854.87  690.23 1865.93  687.98 1873.75   686.6 1918.11  682.91
 1918.31   682.9 1918.45   682.9  1944.5   683.8 1963.16   685.1 1970.69  685.56
 1981.34  686.16 1996.88  687.16 2007.87  687.48 2023.07  688.22 2044.57  688.42
 2049.26  688.51 2052.57   688.5 2071.87  688.44 2097.28  688.36 2101.64  688.34
 2107.81  688.33 2127.83  688.36 2141.99  688.42 2154.02  688.45 2171.04  688.52
 2180.21  688.27 2186.69  688.04 2224.46   687.5  2231.4  687.37 2232.59  687.33
 2234.27   687.3 2258.78  685.86  2276.1  686.38 2284.97  685.66 2297.51   684.8
 2311.16  683.74 2320.81  683.36 2337.35  681.63 2360.74  679.63 2365.52  679.34
 2389.73  676.31 2410.23  674.55 2423.98  674.92 2442.11  675.94 2454.93  676.28
  2468.3  677.33 2487.21  676.35 2499.64  675.78 2520.68  675.95 2544.34  675.32
 2546.87  675.46 2550.44  675.79 2573.06   677.7 2589.05  678.37 2599.25  678.71
 2613.68  679.01 2625.44  679.11 2633.76  678.81 2651.63  677.91 2676.91  676.17
 2678.46  676.06 2704.01  672.06 2723.17  669.99 2740.14  668.78 2756.39   667.8
 2767.88  667.31 2782.58  666.39 2803.38   665.5 2812.58  665.11 2834.96  664.77
 2857.29  664.55 2866.61  664.78 2887.34  665.48    2902  666.08 2913.53  666.51
 2929.85  667.13 2939.72  667.59  2946.7  667.85 2965.91  668.65 2991.41  669.55
  2992.1  669.57 2993.08  669.61 3018.29   671.1 3036.12  671.64 3056.31  672.25
 3070.67  672.72 3080.82  673.05 3096.86  673.58 3119.55  674.32 3125.53  674.47
 3149.24  674.57 3173.98  665.45 3181.68  662.67 3186.99  660.83 3216.58  660.11
 3233.64  659.66 3243.25  659.32 3286.08  658.44  3311.6  659.16 3325.98  659.41
 3340.18  659.58 3345.26  659.71 3371.22  659.95 3385.48  659.58  3385.8  659.46
 3398.18  656.31 3439.08   656.6  3472.9   656.8  3496.4  656.89 3509.68  658.24
 3510.11  658.27 3510.34  658.32 3525.37   659.9 3541.73  659.52 3555.25  659.15
  3562.2  660.42 3593.12  666.26 3603.17  670.02 3603.56  670.18 3627.56  679.92
 3676.43     698 3678.12  698.34  3686.5  697.64 3699.04  699.09 3728.83  702.66
 3747.84  704.83  3800.4  714.33 3809.74  715.92  3826.4  716.03 3828.46  715.66
 3836.25  717.22 3855.39  720.98 3865.74  723.25 3882.33  728.27 3907.24  736.41
 3909.26  736.84 3913.02  737.65 3948.73  748.49 3963.14  754.13 3989.79  766.02
 3990.07  766.12 3990.23  766.17 4017.01  771.89 4031.72  774.78 4043.95  777.86
 4066.56  781.66 4070.88  782.45 4073.22  782.62 4097.82  783.78 4114.72  783.41
 4124.76  783.48 4143.32  782.52 4151.69  782.34 4156.22  782.05 4178.63  781.71
 4197.71  781.17 4205.56   781.5 4220.09  782.46  4232.5  783.61 4239.21  784.03
 4261.69  785.07  4280.7  786.55 4286.37  786.58 4296.86  785.69 4299.54   785.4
#Mann= 3 , 0 , 0 
       0     .06       0 3149.24     .04       0 3627.56     .08       0
Bank Sta=3149.24,3627.56
XS Rating Curve= 0 ,0
XS HTab Starting El and Incr=657.31,1, 100 
XS HTab Horizontal Distribution= 5 , 5 , 5 
Exp/Cntr=0.3,0.1

Type RM Length L Ch R = 1 ,136948  ,859.042,871.702,878.46
Node Name=Low Water Bridge
XS GIS Cut Line=4
1966305.14967545292207.8034989331968605.25102431290553.056279807
1969283.69594219290503.4147962641970028.33303901290453.771192196
Node Last Edited Time=Nov/06/2006 08:56:17
#Sta/Elev= 282 
       0  849.45    5.06  848.31   14.16  846.69   35.02  842.67   50.03  839.52
   61.18  835.64   76.67  829.96   87.33  826.02      95  823.08  113.48  818.39
  139.18  811.66  139.64  811.54  139.97  811.45  142.01  810.56  184.94  792.14
  191.95  790.16  201.68  787.39   218.1  782.78  229.91  779.49  244.25  775.44
  264.19  769.96  270.41  767.54  274.88  765.88  302.29  752.44  319.85  743.71
  322.72  742.72   326.7  741.44  348.87  736.64  364.82  733.38  375.02  730.07
  389.21  726.06  401.18  722.53  409.79  720.41  427.33  717.79  451.72  714.82
  453.49   714.6  454.76  714.48  462.57  713.52  499.73  708.63   505.8  708.28
  514.22  707.94  531.95  707.39   544.7  707.17   558.1  706.92  576.73   706.7
  584.26   706.7  589.67  706.63  622.84  705.35  634.64  704.94  636.57  704.91
  639.24  704.86  662.72  704.33  679.61  703.84  688.87  703.37  701.75  702.83
  715.03  702.24  724.58  701.92  741.18  701.47  764.26  701.08  767.33  701.03
  769.55  701.02  793.49   700.1  814.52  699.81  819.64   699.8  826.76  699.94
   845.8  700.17  859.49  700.59  889.27   701.9  898.11  702.21  904.46  702.53
  943.39  706.14  949.43  706.67  950.41  706.72  951.78  706.77  976.57  706.58
   994.4  706.25 1002.72  705.29 1014.29   703.8 1028.87  701.01 1039.37  700.22
 1055.03  698.47  1076.8  697.92 1081.18  697.92 1084.34     698 1107.34  697.72
 1129.31  697.49 1133.49  697.55  1139.3   697.5 1174.28  697.14  1185.8  696.97
 1201.81  696.15 1211.95  695.73 1219.25  695.24 1238.11  693.59 1264.22  690.48
 1264.26  690.48 1264.32  690.48 1309.18  688.62 1316.57   688.2 1326.83  687.68
 1342.72  686.75 1354.16  686.15 1368.88   685.8 1389.34  686.31 1395.03  686.33
 1399.13  686.49 1421.18  688.38  1444.1   692.2 1447.34  692.41 1451.85  692.78
 1489.07  694.56 1499.65  694.77 1514.35  695.08  1525.8  695.19 1534.04  695.32
 1551.95  695.19 1576.86  694.91 1578.11  694.89 1579.01  694.86  1584.5   694.7
 1623.97  693.63 1630.42  693.49 1639.37   693.2 1656.57  692.43 1668.94  691.59
 1682.72  690.78 1701.88  689.51 1708.88  689.13 1713.91  688.81 1735.03  686.88
 1758.88   684.9 1761.19  684.74 1764.39  684.55 1803.85  681.41 1813.49   680.6
 1826.89  679.18 1839.65  678.31 1848.82  677.55  1865.8  676.81  1889.4  677.21
 1891.96  677.18 1893.79  677.23 1905.05  677.88 1938.76  679.66 1944.26  680.13
 1951.91  681.09 1970.42  683.02 1983.73  684.81 1996.57  684.95 2014.42  685.38
 2022.73   685.6  2028.7  685.71 2048.88  685.83 2073.67  685.51 2075.03  685.46
 2076.93  685.27 2101.19  682.81 2118.64  680.19 2139.43  678.17  2153.5   676.9
 2163.61   676.5 2179.65  674.71 2201.94   675.3 2208.58  675.48 2231.96  676.23
 2253.55  677.13 2258.11  677.21 2264.45  677.33 2284.27   677.4 2298.52  677.66
 2310.42  677.74 2326.96  678.08 2336.57  678.15 2343.49  678.33 2362.73  678.35
 2388.46  678.69 2388.88  678.68 2389.47  678.66 2415.04  677.38 2433.43  676.52
 2451.97  676.86 2467.34  676.86  2478.4  676.82  2493.5  678.66 2514.48  680.91
 2523.37  681.14 2545.81     681 2568.34  679.55 2576.99  678.87 2598.11  677.68
 2613.31  676.57 2624.27   675.3  2639.5  674.11 2650.42  673.27 2658.28  672.94
 2676.58  671.72 2702.01   671.2 2703.25   671.2 2728.88  671.45 2748.22  671.99
 2764.52  671.93 2781.19  672.03 2793.19  672.03 2807.35  671.93 2827.02  671.73
 2833.49  671.63 2837.29  671.58 2867.61  671.12 2873.89  671.03 2881.17  670.79
 2910.49   669.8 2935.82   669.4  2947.1  669.22 2960.15     669  2983.7  668.58
 3004.04  667.77  3020.3   667.2 3039.13  666.84  3056.9  666.48 3072.25  665.87
  3093.5  665.07 3106.36  664.84 3130.11  664.39 3157.75  661.97 3180.39  659.28
 3186.99  659.29 3199.26  659.09 3243.36  658.79  3269.3  658.59 3276.05  658.49
 3281.13  658.78 3339.73   659.6 3348.05  659.49 3354.36  659.34 3355.11  659.16
 3378.85   653.3 3454.61  655.57 3467.77  655.99 3471.34   657.8 3496.33   671.1
 3513.75  680.34 3526.66  687.19 3533.38  691.35  3604.1  718.82 3606.88  719.91
 3607.27  719.98 3609.12  720.03 3679.06  721.66 3687.14  722.19 3715.65  724.41
 3721.44  724.79 3752.24  726.97 3755.74  727.43 3788.82  731.23 3790.04   731.3
 3808.28  732.16 3824.33  732.92 3825.41  732.97 3858.63  736.22 3861.99  736.54
 3892.93  738.01 3898.58  738.27 3927.23  740.54 3935.16  741.19 3961.53   741.9
 3971.75  742.21 3995.83   742.7 4008.33  742.99 4030.13  743.95 4044.92  744.58
 4064.43   745.1  4081.5  745.48 4098.73  746.27 4118.09  746.95 4133.03  747.19
 4154.68  747.49 4167.32   747.6 4191.26  747.79 4201.62  747.52 4227.85  746.71
 4235.92  746.28 4260.04  744.72
#Mann= 3 , 0 , 0 
       0     .06       0 3130.11     .04       0 3496.33     .08       0
Bank Sta=3130.11,3496.33
XS Rating Curve= 0 ,0
XS HTab Starting El and Incr=654.3,1, 100 
XS HTab Horizontal Distribution= 5 , 5 , 5 
Exp/Cntr=0.3,0.1

Type RM Length L Ch R = 1 ,136076  ,731.897,735.295,731.45
XS GIS Cut Line=6
1966520.26630501292522.2073366291967810.97032342291628.643668659
1968489.41736183291363.8834350311969200.95942945 291380.42988937
1969894.02960628291394.2917594221970721.16147603290807.987881388
Node Last Edited Time=Nov/06/2006 08:56:17
#Sta/Elev= 314 
       0  839.94    1.55  839.84    9.75  839.23   27.78  836.48   53.82  831.85
   54.02  831.81   54.15  831.77   80.25  826.52   98.55  822.16  106.49  819.19
  117.96  814.32  132.73  808.84  142.95  804.74  158.96  800.81  182.09  794.92
   185.2  794.12  187.35  793.54  211.43  783.16  231.75  774.15  246.22  770.37
   263.9  765.67  276.15  762.45  290.14  758.83  310.35  753.71  316.38  752.19
  320.55  751.18  342.61  742.91  364.95  734.99  368.85  734.18  374.48  733.07
  409.35  726.57  421.32  723.43  438.61  719.39  447.56   717.3  453.74     716
  473.79  713.71  498.14  711.27  500.02  711.02  502.75  710.73  542.54  706.43
   552.5   705.7  566.88  704.73  578.73  703.97  586.94  703.46  604.97  702.32
  631.01  700.85  631.21  700.84  631.34  700.84  657.44  699.35  675.74  698.57
  683.68  698.36  695.14  698.09  720.14  697.65  736.15  697.27  759.27  695.87
  762.39  695.73  764.54  695.59  788.62  695.51  808.94  695.26  814.86  695.88
  823.41  696.71  853.34  701.54  867.33  703.39  887.54   704.5  893.56  704.91
  897.73     705   919.8  705.61  942.13  705.19  946.04  704.93  951.67  704.06
  972.27   701.7  986.53  699.71  998.51  698.55  1015.8  696.42 1024.74  695.59
 1030.93  694.94 1050.98  692.11 1075.33  687.87 1079.93  687.67 1103.45  686.73
 1119.73  685.99 1129.68  685.82 1144.07  685.28 1164.13  684.64 1182.16  684.29
  1208.2  683.52 1208.39  683.52 1208.53  683.52 1234.63  682.94 1252.93  682.44
 1260.86  682.31 1272.33  682.15  1287.1  682.14 1297.33  682.53 1313.33  683.31
 1336.46  684.72 1339.57  684.99 1341.72  685.18 1365.81  688.84 1386.12  690.56
 1392.04  690.89 1400.59   691.1 1418.28  691.65 1430.52  691.65 1444.51  691.77
 1464.73   691.6 1470.75  691.59 1474.92  691.48 1496.99  691.25 1519.32  690.51
 1528.86  690.24 1549.46  689.33 1563.72  688.19 1569.83  687.94 1576.13   687.8
 1603.62     687 1604.32  686.98 1606.09  686.96  1632.5  686.23 1642.81  686.16
 1660.69  685.06 1681.99  685.78 1688.87  685.46  1706.5  685.75 1717.06  685.91
 1721.18  685.97 1745.25  686.16 1760.37  686.18 1773.43  685.86 1799.55   684.3
 1801.62  684.22 1806.92  683.88 1838.74   681.6 1857.99  678.45 1877.92  674.86
 1886.18  674.07 1907.33  672.19 1914.36  671.57 1917.11  671.36 1942.55  668.25
 1956.29  667.07 1970.74  666.34 1995.48  665.55 1998.92  665.42 2007.74  665.24
 2027.11  664.86 2034.67  664.83 2051.89  664.82 2073.85  664.58 2083.48  664.67
 2108.16  665.14 2111.67   665.2 2113.04  665.23 2139.85  666.07 2152.22  666.43
 2168.04  666.93 2191.41  667.54 2196.22  667.82 2208.57  668.39 2224.41  669.09
 2230.59   669.4  2252.6  669.96 2269.78  670.55 2280.78   670.8 2298.11  671.28
 2308.23  671.43 2312.51  671.45 2344.74   671.5  2349.9  671.53 2381.25   671.6
 2387.28  671.55 2417.77  671.22 2424.67  671.12 2454.28  670.64 2462.05   670.4
  2490.8  669.38 2499.43  669.23 2527.31  668.71 2536.82  668.53 2563.83  667.98
  2574.2  667.58 2600.34  666.47 2615.74  664.82 2670.23  659.16 2690.22  659.02
 2711.61  658.76  2731.8  658.58 2749.16  658.58 2760.58  658.56 2788.24  658.78
 2808.57  659.06 2833.92  659.05 2843.86  659.18 2850.76  659.65 2853.77  657.23
 2861.04  653.34 2991.29  655.81 2998.06  655.96  2999.3  656.34 3009.84  660.97
 3031.99  670.68 3036.73  673.27 3042.37  675.95 3067.86  687.91 3068.96  688.08
 3076.27  688.84 3096.54  692.26 3126.69  685.86 3148.05  680.66 3171.79   689.1
 3184.56  693.91 3209.05  697.33 3221.07  699.15  3246.3  704.27 3257.58  706.76
 3283.56  709.07 3294.09  710.06 3320.82   712.3 3330.61  713.15 3358.07  716.95
 3367.12  718.18 3395.33  719.74 3403.63  720.15 3432.59  722.41 3440.14  722.88
 3469.84  723.73 3476.65  723.87  3507.1  725.48 3513.16  725.75 3544.36  726.46
 3549.68  726.58 3581.61  727.24 3586.19  727.35 3618.87   728.6  3622.7   728.8
 3656.13  729.27 3659.21  729.34 3693.39  729.66 3695.72  729.69 3703.05  729.63
 3722.44   729.8 3738.82  729.79 3748.63  729.53 3762.47  728.89 3774.81  728.32
 3783.56  727.85    3801  727.26  3825.6  726.41 3827.18  726.36 3828.31  726.32
 3853.37   725.4 3873.05  724.68 3879.55  724.16 3888.72  723.44  3917.8  721.32
 3931.92  720.87 3951.85  720.28 3958.11  720.14 3962.54  720.05 3984.29  718.82
 4007.29  717.63 4010.47  717.55 4014.97  717.43 4036.66   716.9 4052.03  716.54
 4062.84  715.52  4078.1  714.13 4089.03  713.09 4096.78  712.56 4141.22  711.79
  4141.4  711.79 4141.52  711.78 4167.58  710.96 4186.27  710.55 4193.77  710.09
 4204.35  709.49 4219.95  708.47 4231.01  707.71 4246.14  707.27 4267.47  706.65
 4272.32  706.46 4275.76  706.32 4298.51  704.59  4320.5  703.33 4324.69  703.21
 4330.59  703.14 4350.87  702.73 4365.25  702.61 4377.06  702.06 4393.72  701.49
 4403.24  701.11    4410  700.83 4449.62  699.49 4454.74  699.32 4455.61  699.29
 4456.84  699.25  4481.8  698.25 4499.48  697.75 4507.98  697.62 4519.97  697.75
 4534.17  697.71 4544.23  697.91 4583.09  700.44 4586.54  700.63 4588.98  700.79
 4612.72  704.94 4633.72  709.06 4638.91  709.64 4646.22  710.56 4665.09  712.68
 4678.47  714.35 4691.27   717.1 4709.34  721.35 4716.91  723.01
#Mann= 3 , 0 , 0 
       0     .06       0 2600.34     .04       0 3031.99     .08       0
Bank Sta=2600.34,3031.99
XS Rating Curve= 0 ,0
XS HTab Starting El and Incr=654.34,1, 100 
XS HTab Horizontal Distribution= 5 , 5 , 5 
Exp/Cntr=0.3,0.1

Type RM Length L Ch R = 1 ,135341  ,590.527,579.12,576.555
XS GIS Cut Line=6
1966967.05025952292919.3455665461968009.54049864292174.710590254
1968456.32233263292091.9719569831969267.14948785292108.520531847
1969855.63326529292108.5205318471970927.85538142291324.721584622
Node Last Edited Time=Nov/06/2006 08:56:17
#Sta/Elev= 331 
       0  791.98   18.29  793.26   43.99   793.4   44.46  793.41   45.12  793.36
   70.63  791.53   88.85  788.85    96.8  787.09  107.92  783.28  122.97  778.23
  133.71  774.49  170.73  767.78   175.3  766.96  178.57  766.36  201.47  760.18
  223.43  753.55  227.64  752.74  233.53  751.59  253.81  747.54  268.29  744.61
  296.34  736.52  306.15  733.67  313.15  731.65  332.31  728.13  358.01  723.48
  358.48  723.39  359.14  723.27  384.65   718.6  402.87  715.36  410.82  713.27
  421.95   710.6  447.73  704.78  463.16  702.74  484.75  700.35  489.33  699.89
  492.59  699.66   515.5  696.86  537.45  695.93  541.66  695.84  547.56  695.94
  567.83  696.25  582.31  697.09  610.36   699.5  620.17  700.16  627.17  700.69
  646.34  701.47  672.03  701.93  672.51  701.94  673.17  701.94  698.68   701.9
   716.9  701.81  724.84  701.25  735.97  700.42  761.76  698.65  777.18  697.38
  798.78  695.51  803.35  695.13  806.62   694.9  829.52  690.62  851.48  686.93
  855.69  686.75  861.58  686.52  896.34  685.31  908.02  685.11  924.39  684.82
  934.19  684.63   941.2  684.48  960.36  684.57  986.06  684.67  986.53  684.67
  987.19  684.66  1012.7  684.51 1030.92   684.4 1038.87  684.09    1050  683.65
 1075.78  682.56  1091.2  682.38  1112.8  682.16 1117.37  682.08 1120.64  682.03
 1143.54  681.48  1165.5  681.16 1169.71  681.17 1175.61  681.21 1210.36  681.54
 1222.05   681.6 1238.41   681.7 1248.22  681.86 1255.22  681.84 1274.39  681.36
 1281.12  681.17 1296.81  680.38 1304.38  680.21 1333.94  679.79 1335.71  679.72
 1345.26  679.58 1367.03   679.2 1371.06  679.27 1398.36  679.82 1408.19  680.16
 1429.68   681.4 1445.31  682.54    1461  683.31 1482.44  684.29 1492.33  684.81
 1519.56  685.96 1523.65  686.25 1545.74  687.35 1554.98  687.82 1556.69  687.86
 1559.18  687.88 1593.81  688.37 1617.63  688.06 1630.94  687.67  1650.3  687.04
 1668.06  686.56 1680.27  685.42 1705.19  682.53  1711.6  682.18  1735.5  680.59
  1742.2  680.15 1752.69  676.75 1788.29  665.82 1814.35  657.97 1815.97  657.38
 1819.61  657.38 1841.19  657.38 1870.12  657.38 1871.28  657.38 1871.92  657.38
 1878.73  657.59 1892.22  657.98 1893.09     658 1894.75  657.98 1907.33  657.19
 1910.01  657.71 1922.58  659.49 1929.38  659.97 1939.85  659.31 1954.01  659.02
 1993.36   658.1  1999.2  657.95 2001.14  657.83  2002.1  657.85 2009.93   655.9
 2013.23  655.42 2021.64  653.71 2027.19  652.46 2039.25  655.71 2040.33  655.96
 2041.19  655.92 2053.33  655.33 2058.18  654.07 2061.71  653.57 2088.04   655.1
 2091.42  655.49 2095.55  655.23 2105.31  653.25 2105.36  653.24 2126.23  654.06
 2140.38  654.72 2143.36  655.01 2149.64  655.47 2159.44  656.33 2165.14  657.15
 2170.05  657.66 2172.38  657.38 2183.33  656.23 2189.04  655.41 2189.38  655.35
 2189.75  655.43 2194.06  656.77 2205.29  656.31 2212.94  655.78 2215.87  655.44
 2222.88  654.37  2232.4  654.33 2237.71  654.31 2252.59  654.25 2347.77  653.92
 2350.66  654.62 2354.06  655.16 2374.99  657.14 2376.41  657.33 2376.77  657.34
 2377.31   657.4 2380.91  657.55 2412.99  659.54 2439.46  655.26 2442.93  654.49
 2448.82  654.32 2452.19  654.24 2452.96  654.19 2453.51  654.22 2454.86  654.25
 2462.06  654.58 2474.94  660.66 2476.18  661.22 2477.77  661.67 2479.39  662.21
 2515.76  667.42 2533.75  676.86 2542.71  681.88 2546.49   682.5 2557.81  684.39
 2587.31  690.28 2618.48   698.8 2636.48  700.58 2654.98  702.64 2673.48  703.18
 2691.49   703.6 2709.49  704.12 2727.99  704.78 2746.49  705.18  2764.5  705.54
  2782.5  705.94    2801  706.36  2819.5  707.24  2837.5  708.13    2856  708.59
 2874.01  709.08 2892.01  709.96 2910.51  710.76 2929.01  710.98 2947.02  711.26
 2965.02  711.46 2983.52  711.51 3002.02  711.57 3020.03   711.7 3038.03  712.01
 3056.53  712.25 3075.03  713.16 3093.03  714.17 3111.04  714.62 3129.54  715.03
 3134.98  715.11 3144.32  715.42 3166.32  716.16 3170.45  716.29 3173.46  716.39
 3196.57  716.75 3218.68  717.09 3222.69  717.14 3228.18  717.22  3263.9  718.39
 3274.94  718.81 3290.04   719.4 3301.06  719.62 3309.11   719.8 3327.18  720.15
  3351.9  720.59  3353.3  720.62 3354.33  720.64 3379.43  721.28 3399.55  721.63
 3405.55  721.77 3413.75  721.92 3444.77  722.36 3457.79  722.31 3475.61  721.85
 3483.92  721.69 3489.99  721.44 3510.04  720.86  3535.2  720.05 3536.16  719.98
 3537.47  719.88 3580.42  716.77 3588.41  716.48 3599.33  716.05 3614.53  715.49
 3625.64  715.03 3640.65  714.42 3661.18  713.39 3666.77  713.11 3670.86  712.87
  3692.9   710.5 3716.08  707.65 3719.02  707.47 3723.04   707.2 3745.14  705.89
  3761.3  705.01 3771.26   704.1  3784.9  702.85 3797.38  701.78 3806.51  701.05
 3846.76  699.73 3849.63  699.62 3851.73  699.55 3865.25  698.79 3896.95  696.99
 3901.88  696.91 3908.61  696.78    3928  696.45 3942.17  696.17 3954.12  696.03
 3970.47  695.78 3980.24  695.62 3987.38   695.5 4006.36  695.22 4032.33  694.85
 4032.49  694.85  4032.6  694.85 4058.61  694.84 4077.82  694.84 4084.73  694.85
 4094.19  694.86 4123.04  694.88 4136.98  694.88 4156.04  694.88  4163.1  694.88
 4168.26  694.88 4189.22  694.88 4213.48  694.85 4215.34  694.85  4217.9  694.85
 4241.47  694.79 4258.69  694.78 4279.76  694.82 4293.71  694.89 4303.91  695.03
 4319.83  695.48 4341.62  696.59 4345.96  696.79 4349.13  696.96 4372.08  697.94
 4394.35  699.09  4398.2  699.43 4403.47  700.09 4439.57  704.77 4450.45  705.78
 4463.14  707.26
#Mann= 3 , 0 , 0 
       0     .06       0 2170.05     .04       0 2412.99     .08       0
Bank Sta=2170.05,2412.99
XS Rating Curve= 0 ,0
XS HTab Starting El and Incr=654.92,1, 100 
XS HTab Horizontal Distribution= 5 , 5 , 5 
Exp/Cntr=0.3,0.1

Type RM Length L Ch R = 1 ,134762  ,469.543,434.91,413.526
XS GIS Cut Line=6
1967198.71334342 293614.341179821968125.37416112292869.704083004
1968323.94221582 292720.777511851969399.52960467292638.038878579
1969951.52975441292527.6401209451971095.79245663291608.924909348
Node Last Edited Time=Nov/06/2006 08:56:17
#Sta/Elev= 322 
       0  786.21   10.16  783.58   29.71  779.02   36.13  777.85   44.12  776.47
   76.54  770.88   88.06  768.98   102.4  766.76  114.02  764.82  123.37  763.43
  139.99  760.77  160.67  758.13  165.95  757.41   170.2  757.01  209.17  753.42
  217.03  752.69  217.89  752.63  218.95  752.56  243.85  750.93  263.86  749.58
  269.82  749.08  277.23  748.44  295.78  746.82  310.69  745.51  321.75  744.54
  335.51   743.2  347.71   741.4  357.52   739.6  393.78  732.84  399.64  732.47
  404.35  732.12  425.61  730.65  451.18  728.76  451.57  728.72  452.06  728.69
  477.54  727.42  498.01  726.55  510.34  726.27  529.47  726.14  544.84  725.99
  555.43  725.66  568.62  724.86   581.4  724.36  591.67  723.68  607.36  722.94
  626.89  721.77  633.33  721.38   638.5  721.04  659.29  718.54  685.17  715.28
  685.26  715.26  685.33  715.25  711.23  712.47  732.16  710.12  737.19  709.59
  743.45   708.9  778.99   703.5  789.12  701.66  801.73  699.74  815.09  697.47
  825.82  696.13  841.05   694.8     860  694.01  867.02  693.82  872.65   693.8
  892.98  695.07  918.28  697.52  919.48  697.64  944.91  698.02  966.31  697.82
  976.56  697.46  996.84  696.56 1013.14  695.47 1022.81  694.48 1034.84  693.08
 1059.97   691.1 1074.74  690.44 1093.11  690.52  1100.7  690.64  1106.8  690.92
 1126.67  691.37 1151.39  692.34 1152.63  692.36 1153.63  692.39  1178.6  692.63
 1188.77  687.01 1207.68  676.62 1236.92  662.84  1246.7  662.63 1274.11     662
 1295.97   661.9 1312.35  661.59 1345.22  660.38 1347.25  660.29 1348.21  660.26
 1350.61  660.31 1385.39  660.67 1413.91  660.23 1422.82  660.06  1426.4  659.35
 1436.98  658.61 1439.09  658.42 1439.31  658.44 1450.59  660.18 1458.43  660.49
 1459.61  660.53 1463.49  660.55 1474.52  660.78 1482.17  660.65 1497.38  660.33
 1512.69  659.72 1514.34  659.64 1515.39  659.57    1534  658.16 1552.42  657.44
 1554.26  657.33 1555.67  657.34 1570.43   656.1 1576.42   655.6 1577.59  655.77
 1593.09  658.03 1599.29  657.85 1607.41  657.57 1630.17  656.72 1657.21  656.15
 1658.45  656.13 1658.58  656.12 1658.93  656.12 1687.95  656.13 1694.37  655.81
 1719.16  655.84 1728.44  655.69  1752.7  655.15 1761.75  655.06 1778.49  654.82
 1809.87   654.9 1831.51   654.8 1842.51  655.12 1854.65  655.15 1869.83  655.17
 1889.12  655.91 1912.81  656.15 1924.63  652.05 1925.88  651.39 1929.84  651.38
 1931.42  651.38 1963.75  651.13 1977.26   651.1 2025.74  652.28 2045.53  652.84