Geom Title=SA to 2D Flow Area - Detailed
Program Version=5.07
Viewing Rectangle= 1960143.16849393 , 2090725.70849117 , 375076.836522605 , 285553.249222095 

Storage Area=BaldEagleCr     ,2041741.506354,344326.7552595
Storage Area Surface Line= 434 
  2009315.707916  321138.3852721                
 2008969.4520042  320707.9049489                
 2008705.3158818  320392.9438406                
 2007655.4111212    321499.60021                
  2007144.646643  322095.4921012                
  2006562.942654  322804.8872097                
 2006264.9967084  323117.0210575                
 2005555.6015999  323400.7791009                
 2004945.5218065  323585.2218291                
2004213.56874536323633.001253954                
2003400.55157029323441.703107277                
 2002647.0816548  323911.5435791                
 2002907.1863383  324363.7214672                
 2003285.8796567  324815.2404237                
 2003402.4006777  324975.4568276                
 2003489.7914435   325193.933742                
 2003577.1822092  325485.2362946                
 2003577.1822092  325761.9737195                
 2003446.0960606  326126.1019103                
 2003260.9085881  326425.8066329                
 2002961.4440155  326584.8971871                
 2002297.0069949  326959.2279029                
 2001698.0778496   327221.259404                
 2001529.6290275  327361.6334224                
 2000986.8494896   328203.877533                
 2000930.6998822   329008.688572                
 2000940.0581501  329476.6019667                
 2000958.7746859  329832.2161468                
 2001155.2983117  330122.3224515                
 2001379.8967412  330262.6964699                
 2001651.2865102  330300.1295415                
 2001978.8258865  330187.8303268                
 2002297.0069949  330084.8893799                
  2002736.845586  329579.5429136                
 2003766.2550545  329177.1373941                
 2004131.2275024  328568.8499809                
 2004674.0070403  327614.3066556                
 2004936.0385414  327352.2751545                
  2005684.699973  327155.7515287                
 2006227.4795109  327146.3932608                
 2006948.0661388  327239.9759398                
 2008071.0582863  327913.7712282                
 2009390.5740595  329074.1964473                
 2009643.2472927  329429.8106273                
 2009774.2630432  329888.3657541                
  2009792.979579  330141.0389873                
 2009530.9480779  330599.5941142                
 2008801.0031821  331254.6728668                
 2007930.6842678  332265.3657995                
 2007247.5307115  333360.2831433                
  2006938.707871  333706.5390554                
 2006779.6173167  333996.6453601                
  2006751.542513  334342.9012723                
 2006657.9598341  334530.0666302                
 2006105.8220283  335054.1296323                
 2005815.7157235  335297.4445976                
 2004627.2157008  335877.6572071                
 2004299.6763245  336027.3894934                
 2003878.5542692  336233.2713871                
 2003485.5070176  336551.4524955                
 2003167.3259092  336841.5588003                
 2003055.0266944  337262.6808556                
 2003139.2511055  337711.8777145                
 2003710.1054471   337936.476144                
 2004224.8101813  337973.9092156                
 2004533.6330219  337824.1769293                
  2004702.081844  337777.3855898                
 2005272.9361856  337777.3855898                
 2006152.6133678  337346.9052666                
  2006667.318102  337103.5903014                
 2007444.0543373  336972.5745508                
 2008192.7157689  336542.0942276                
 2010813.0307796  334595.5745054                
 2012020.2473381  333903.0626812                
  2012207.412696  333538.0902333                
 2012703.4008944  332864.2949448                
 2012946.7158597  332536.7555685                
 2013321.0465755  332340.2319427                
 2014013.5583997  332284.0823353                
  2014706.070224  332415.0980858                
 2015370.5072445   332939.161088                
 2022286.2672191  337646.3698393                
 2025440.0034998  339686.4722404                
 2025561.6609824  339892.3541341                
 2025570.6673017  340292.3284342                
 2025791.6837472  340605.4350653                
 2026095.0822525  340743.9565126                
 2026450.6964325  340809.4643879                
 2029342.4012121  342624.9683595                
  2029843.651915  343091.8700774                
 2030119.9224719  343386.5586714                
 2030506.7012515  343718.0833397                
 2030911.8980683  343883.8456738                
 2031243.4227366   344049.608008                
 2034470.7320187  346274.6928387                
  2034536.239894   346424.425125                
 2034573.6729655  346611.5904829                
 2034498.8068224  346770.6810371                
 2034339.7162682  346985.9211987                
  2034171.267446  347201.1613603                
 2034068.3264992   347313.460575                
 2033984.1020881   347407.043254                
 2034021.5351597  347538.0590045                
 2034105.7595708  347622.2834156                
 2034199.3422497  347631.6416835                
  2034358.432804  347547.4172724                
 2034508.1650903  347528.7007366                
 2034760.8383234  347556.7755403                
 2034919.9288777  347669.0747551                
 2035125.8107714  347977.8975956                
 2035331.6926651  348361.5865793                
 2035612.4407019  348810.7834383                
 2035715.3816488  349175.7558862                
 2035724.7399167  349419.0708515                
  2035645.333669  349722.3633602                
 2035443.9918798  350326.8228373                
 2035490.7832193  350551.4212668                
 2035612.4407019  350747.9448926                
  2035780.889524  350850.8858394                
 2035949.3383461  350860.2441073                
 2036400.4731912   350716.937365                
  2036658.325711  350588.0111051                
 2036913.2399393  350485.9133915                
 2037334.3619946  350691.7952852                
 2037577.6769599  350869.6023752                
 2037671.2596389  351150.3504121                
 2038008.1572831  351318.7992342                
 2038663.2360358  351169.0669479                
 2039664.5707005    351159.70868                
 2041133.8187601  351777.3543611                
 2042790.2321775  352516.6575248                
 2043894.5077892   353031.362259                
 2044165.8975581  353050.0787948                
 2044568.3030776  352759.9724901                
 2045672.5786893  352376.2835064                
  2046861.078712  352788.0472937                
 2047955.9960557  353134.3032059                
 2048433.2677184  353368.2599032                
 2048470.7007899  353630.2914043                
 2048330.3267715  353873.6063696                
 2048087.0118062  354154.3544064                
 2047740.7558941  354229.2205496                
 2047328.9921067  354173.0709422                
 2047029.5275341  354276.0118891                
  2046505.464532  354977.8819812                
 2045560.2794745  355473.8701797                
 2045232.7400982  355558.0945907                
 2045036.2164724  355960.5001102                
 2045382.4723845  356540.7127197                
 2046000.1180656  357130.2835971                
 2046149.8503519   357588.838724                
 2044689.9605603  360939.0986305                
 2044231.4054334  361837.4923484                
 2044034.8818076  362511.2876369                
 2044643.1692208  362745.2443343                
 2047460.0078573  363007.2758353                
 2048311.6102357  361528.6695079                
 2049406.5275795  360068.7797162                
 2050052.2480642  359469.8505709                
 2050310.4980832  359463.4353533                
 2050494.2885528  359708.4893128                
 2050627.0261141  359861.6480374                
 2050841.4483287   359871.858619                
 2051035.4493799   359616.594078                
 2051100.3740685  359479.2088388                
 2051334.3307659   359020.653712                
 2051268.8228906  358693.1143356                
 2050903.8504427   358655.681264                
  2050520.161459  358618.2481925                
 2050454.6535837  358449.7993704                
 2050679.2520132   357495.256045                
 2050950.6417822  357120.9253292                
 2051268.8228906  356858.8938282                
  2051505.136154  356604.4724273                
 2051699.1372052  356624.8935906                
 2051893.1382564  356818.8946419                
  2052250.508614  356716.7888254                
 2052288.8740912  356400.3387013                
 2052335.6654307  356016.6497176                
 2052476.0394491  355735.9016807                
 2052897.1615044  355473.8701797                
 2053524.1654534  355455.1536439                
 2054525.5001182  355492.5867155                
 2055405.1773003  355558.0945907                
 2056350.3623577  355932.4253065                
 2056660.3142889   356426.528705                
 2056789.2405487  356813.3074847                
 2056733.9864374  357071.1600045                
 2056528.1694477   357495.256045                
 2056144.6092493  358065.7340093                
 2056568.2241032  358415.6767147                
 2057157.6012913  358526.1849374                
 2057636.4702566  358378.8406404                
 2058023.2490362  358047.3159722                
 2058115.3392218  357697.3732668                
 2058373.1917416  357494.7748584                
 2058811.5868142  357392.3150982                
 2059887.7876221  357457.8229735                
 2061169.8703238  357663.7048672                
 2062788.8506696  357757.2875461                
 2064108.3664429  358403.0080309                
 2065736.7050566  359245.2521414                
 2066382.4255414  359591.5080536                
 2066494.7247561  359769.3151436                
  2066504.083024  359919.0474299                
 2066691.2483819  360274.6616099                
 2067383.7602062  360471.1852357                
 2067832.9570652  360723.8584689                
 2068094.9885662  360845.5159515                
 2068319.5869957    361163.69706                
 2068366.3783352  361500.5947042                
 2068188.5712452  361893.6419558                
 2067608.3586357  362296.0474753                
 2066897.1302756  362576.7955121                
 2066232.6932551  362745.2443343                
 2065923.8704145  362829.4687453                
 2065409.1656803  363250.5908006                
 2065240.7168582  363465.8309622                
  2066419.858613  364691.7640565                
 2067234.0279199   365000.586897                
 2068394.4531389  365243.9018623                
 2068955.9492126  365505.9333634                
 2070107.0161637   366694.433386                
 2070593.6460943  367368.2286745                
 2070649.7957016  367854.8586051                
   2070612.36263  368341.4885356                
 2071248.7248469  368893.6263414                
 2072530.8075486  369436.4058793                
 2073344.9768554   369913.677542                
 2075123.0477555  369979.1854173                
 2075862.3509193  369726.5121841                
 2077116.3588172  369539.3468262                
 2078463.9493941  369333.4649325                
 2079624.3746131  369744.2163885                
 2080288.8116337   370324.428998                
 2080953.2486543  370586.4604991                
 2082544.1541965  370745.5510533                
 2083536.1305933  370913.9998754                
 2084247.3589534  371007.5825544                
 2084668.4810087  370876.5668038                
 2084790.1384913  370474.1612843                
 2084687.1975445  369454.1100838                
 2084340.9416323  368162.6691142                
 2084415.8077755  365392.6218172                
 2083189.8746812  364503.5863672                
 2081767.4179611  363942.0902935                
 2081224.6384232   363090.487915                
 2080606.9927421  360835.1453523                
 2079231.3273615  359618.5705259                
 2077509.4060688  357634.6177321                
 2076461.2800646  357101.1964621                
 2075366.3627208  356895.3145684                
 2074748.7170397  355940.7712431                
 2070958.6185422  354593.1806662                
 2068881.0830694   353807.086163                
 2067496.0594209  353348.5310361                
 2066167.1853798  352693.4522834                
 2065034.8349645   352197.464085                
 2064155.1577823  351720.1924223                
 2063228.6892607  351093.1884733                
 2062115.0553812  350419.3931849                
 2061282.1695385  349988.9128617                
 2060131.1025874  349595.8656101                
 2058390.4647589  349099.8774117                
 2057426.5631657  348697.4718922                
 2057080.3072536    348351.21598                
 2056818.2757525  348107.9010148                
 2056425.2285009  348135.9758184                
  2055966.673374  348004.9600679                
 2054824.9646908  347275.0151721                
 2052550.9055923   346479.562401                
 2050407.8622443  346021.0072741                
 2048592.3582726  345515.6608078                
 2047675.2480189  345160.0466278                
 2046131.1338161  344308.4442493                
 2044006.8070039  342970.2119403                
 2042846.7864727  341884.5043691                
 2042625.7700272  341626.6518493                
 2042533.6798416  341221.4550326                
 2042607.3519901    340853.09429                
 2042809.9503985   340263.717102                
 2043104.6389925  339895.3563595                
 2043362.4915123  339582.2497283                
 2043601.9259949  339361.2332828                
 2043822.9424404  339195.4709487                
 2044080.7949602  339029.7086145                
 2044264.9753315  338845.5282433                
 2044393.9015913  338642.9298349                
 2044228.1392572  338385.0773151                
 2043933.4506632  338182.4789067                
 2043841.3604776  337906.2083498                
 2043896.6145889  337629.9377929                
 2044357.0655171  337261.5770504                
 2044762.2623339  337151.0688277                
 2045038.5328908   337058.978642                
 2045223.3818303  336990.2787552                
 2045373.1141166  336943.4874158                
 2045644.5038856  336803.1133973                
 2045822.3109756  336662.7393789                
 2045897.1771188   336475.574021                
 2045887.8188509  336250.9755915                
 2046000.1180656  335960.8692868                
 2046121.7755482  335773.7039289                
 2046252.7912988  335736.2708573                
 2046383.8070493  335811.1370004                
 2046701.9881578  335951.5110189                
 2046992.0944625  336110.6015731                
  2047216.692892   336204.184252                
 2047366.4251783  336269.6921273                
  2047488.082661  336269.6921273                
 2047619.0984115  336250.9755915                
 2047722.0393583  336138.6763768                
 2047778.1889657  335988.9440905                
 2047722.0393583  335829.8535362                
 2047534.8740004  335652.0464462                
 2047506.7991967  335521.0306957                
 2047581.6653399  335277.7157304                
 2047815.6220373  335053.1173009                
 2048433.2677184  334538.4125667                
 2048545.5669331  334529.0542988                
 2048751.4488268  334716.2196567                
 2048985.4055242  334819.1606035                
 2049312.9449005   334959.534622                
 2050155.1890111   334603.920442                
 2050716.6850848  334444.8298877                
 2051062.9409969  334014.3495646                
 2050988.0748538  333808.4676709                
 2050688.6102811  333696.1684561                
   2050248.77169   333527.719634                
   2049181.92915  333518.3613661                
 2048461.3425221  333471.5700266                
 2047525.5157325   333527.719634                
 2047104.3936772  333789.7511351                
 2046692.6298899  334042.4243682                
 2046477.3897283  334004.9912967                
 2046168.5668877  333714.8849919                
 2045841.0275114   333527.719634                
 2045373.1141166  333574.5109735                
 2044764.8267034  333593.2275093                
 2044521.5117382  333509.0030982                
 2043847.7164497  333087.8810429                
 2043791.5668423  332835.2078098                
 2043894.5077892  332488.9518976                
 2044100.3896829  331609.2747155                
 2044240.7637013  331553.1251081                
 2044708.6770961  331525.0503044                
  2045251.456634  331337.8849465                
  2045607.070814   330851.255016                
 2045691.2952251  330149.3849238                
 2046187.2834235  329550.4557785                
 2047132.4684809  329222.9164022                
 2047516.1574646   328970.243169                
 2047899.8464483  328492.9715064                
 2048096.3700741  327968.9085042                
 2047955.9960557  327407.4124305                
 2047497.4409288  326958.2155716                
 2046758.1377651  326939.4990358                
 2046187.2834235  327089.2313221                
 2045972.0432619  327238.9636084                
 2045747.4448324  327772.3848784                
 2045653.8621535  328090.5659869                
  2045335.681045  328633.3455248                
 2045017.4999366  329026.3927764                
 2044811.6180429  329138.6919911                
  2044624.452685  329559.8140464                
 2044549.5865419  329831.2038154                
 2044437.2873271  329887.3534228                
 2044203.3306297  329896.7116907                
 2043220.7125007  329831.2038154                
 2042808.9487133  329728.2628685                
 2042462.6928012  329849.9203512                
 2042266.1691754  329924.7864943                
 2042144.5116928  330093.2353165                
 2042079.0038175  330430.1329607                
 2042060.2872817  330972.9124986                
 2042041.5707459  331356.6014823                
 2041985.4211386  331440.8258934                
 2041891.8384596   331478.258965                
 2041751.4644412   331478.258965                
 2041657.8817622  331412.7510897                
 2041218.0431712  331057.1369097                
 2040796.9211159  330701.5227297                
 2040113.7675595  330430.1329607                
   2039711.36204  330233.6093349                
 2039140.5076984  330121.3101201                
 2038831.6848579  330233.6093349                
 2038625.8029642  330533.0739075                
 2038569.6533568  330832.5384802                
 2038719.3856431  331075.8534455                
 2039224.7321095  331431.4676255                
  2039627.137629  331571.8416439                
 2040319.6494532  332067.8298424                
 2041021.5195454  332526.3849692                
 2041152.5352959  332713.5503271                
 2041161.8935638  333144.0306503                
 2041274.1927785  333499.6448303                
 2041629.8069585  333958.1999572                
 2041999.5566903  334590.9616604                
 2042460.0076184  335603.9537024                
 2042570.5158412  336082.8226676                
 2042496.8436927  336690.6178928                
 2042404.7535071  337040.5605982                
 2042331.0813586   337298.413118                
  2042210.019568  337542.4165611                
 2042017.9747274  337703.6099348                
 2041999.5566903   338035.134603                
 2041944.3025789  338495.5855312                
 2041907.4665047  338919.2003851                
 2041796.9582819  339250.7250534                
 2041612.7779106  339471.7414989                
 2041244.4171681  339692.7579444                
 2040820.8023142  340079.5367241                
 2040341.9333489  340392.6433552                
 2039991.9906435  340447.8974666                
  2039449.330539  340331.1803938                
 2038784.8935184  339994.2827496                
 2034292.9249287   337008.995291                
 2031223.4130591  335025.0424972                
 2030147.2122511   334332.530673                
 2029164.5941221  333855.2590103                
 2024429.3105671  330654.7313902                
 2020873.1687669  328137.3573264                
 2018037.6135947  326069.1801215                
 2017101.7868052  325329.8769578                
 2015426.6568519  324291.1092214                
 2014425.3221871  323729.6131477                
 2013966.7670603  323626.6722009                
 2013386.5544508  323551.8060577                
 2012731.4756981  323402.0737714                
 2011823.7237123  323093.2509308                
 2010719.4481006  322410.0973745                
 2009849.1291864  321633.3611392                
 2009371.8575237  321193.5225481                
  2009315.707916  321138.3852721                
Storage Area Type= 0 
Storage Area Area=
Storage Area Min Elev=
Storage Area Is2D=-1
Storage Area Point Generation Data=,,100,100
Storage Area 2D Points= 87039 
        2083700.         370900.        2083800.         370900.
        2083900.         370900.        2084000.         370900.
        2084100.         370900.        2084200.         370900.
        2084300.         370900.        2084400.         370900.
        2084500.         370900.        2083100.         370800.
        2083200.         370800.        2083300.         370800.
        2083400.         370800.        2083500.         370800.
        2083600.         370800.        2083700.         370800.
        2083800.         370800.        2083900.         370800.
        2084000.         370800.        2084100.         370800.
        2084200.         370800.        2084300.         370800.
        2084400.         370800.        2084500.         370800.
        2084600.         370800.        2082400.         370700.
        2082500.         370700.        2082600.         370700.
        2082700.         370700.        2082800.         370700.
        2082900.         370700.        2083000.         370700.
        2083100.         370700.        2083200.         370700.
        2083300.         370700.        2083400.         370700.
        2083500.         370700.        2083600.         370700.
        2083700.         370700.        2083800.         370700.
        2083900.         370700.        2084000.         370700.
        2084100.         370700.        2084200.         370700.
        2084300.         370700.        2084400.         370700.
        2084500.         370700.        2084600.         370700.
        2081400.         370600.        2081500.         370600.
        2081600.         370600.        2081700.         370600.
        2081800.         370600.        2081900.         370600.
        2082000.         370600.        2082100.         370600.
        2082200.         370600.        2082300.         370600.
        2082400.         370600.        2082500.         370600.
        2082600.         370600.        2082700.         370600.
        2082800.         370600.        2082900.         370600.
        2083000.         370600.        2083100.         370600.
        2083200.         370600.        2083300.         370600.
        2083400.         370600.        2083500.         370600.
        2083600.         370600.        2083700.         370600.
        2083800.         370600.        2083900.         370600.
        2084000.         370600.        2084100.         370600.
        2084200.         370600.        2084300.         370600.
        2084400.         370600.        2084500.         370600.
        2084600.         370600.        2084700.         370600.
        2080900.         370500.        2081000.         370500.
        2081100.         370500.        2081200.         370500.
        2081300.         370500.        2081400.         370500.
        2081500.         370500.        2081600.         370500.
        2081700.         370500.        2081800.         370500.
        2081900.         370500.        2082000.         370500.
        2082100.         370500.        2082200.         370500.
        2082300.         370500.        2082400.         370500.
        2082500.         370500.        2082600.         370500.
        2082700.         370500.        2082800.         370500.
        2082900.         370500.        2083000.         370500.
        2083100.         370500.        2083200.         370500.
        2083300.         370500.        2083400.         370500.
        2083500.         370500.        2083600.         370500.
        2083700.         370500.        2083800.         370500.
        2083900.         370500.        2084000.         370500.
        2084100.         370500.        2084200.         370500.
        2084300.         370500.        2084400.         370500.
        2084500.         370500.        2084600.         370500.
        2084700.         370500.        2080600.         370400.
        2080700.         370400.        2080800.         370400.
        2080900.         370400.        2081000.         370400.
        2081100.         370400.        2081200.         370400.
        2081300.         370400.        2081400.         370400.
        2081500.         370400.        2081600.         370400.
        2081700.         370400.        2081800.         370400.
        2081900.         370400.        2082000.         370400.
        2082100.         370400.        2082200.         370400.
        2082300.         370400.        2082400.         370400.
        2082500.         370400.        2082600.         370400.
        2082700.         370400.        2082800.         370400.
        2082900.         370400.        2083000.         370400.
        2083100.         370400.        2083200.         370400.
        2083300.         370400.        2083400.         370400.
        2083500.         370400.        2083600.         370400.
        2083700.         370400.        2083800.         370400.
        2083900.         370400.        2084000.         370400.
        2084100.         370400.        2084200.         370400.
        2084300.         370400.        2084400.         370400.
        2084500.         370400.        2084600.         370400.
        2084700.         370400.        2080300.         370300.
        2080400.         370300.        2080500.         370300.
        2080600.         370300.        2080700.         370300.
        2080800.         370300.        2080900.         370300.
        2081000.         370300.        2081100.         370300.
        2081200.         370300.        2081300.         370300.
        2081400.         370300.        2081500.         370300.
        2081600.         370300.        2081700.         370300.
        2081800.         370300.        2081900.         370300.
        2082000.         370300.        2082100.         370300.
        2082200.         370300.        2082300.         370300.
        2082400.         370300.        2082500.         370300.
        2082600.         370300.        2082700.         370300.
        2082800.         370300.        2082900.         370300.
        2083000.         370300.        2083100.         370300.
        2083200.         370300.        2083300.         370300.
        2083400.         370300.        2083500.         370300.
        2083600.         370300.        2083700.         370300.
        2083800.         370300.        2083900.         370300.
        2084000.         370300.        2084100.         370300.
        2084200.         370300.        2084300.         370300.
        2084400.         370300.        2084500.         370300.
        2084600.         370300.        2084700.         370300.
        2080200.         370200.        2080300.         370200.
        2080400.         370200.        2080500.         370200.
        2080600.         370200.        2080700.         370200.
        2080800.         370200.        2080900.         370200.
        2081000.         370200.        2081100.         370200.
        2081200.         370200.        2081300.         370200.
        2081400.         370200.        2081500.         370200.
        2081600.         370200.        2081700.         370200.
        2081800.         370200.        2081900.         370200.
        2082000.         370200.        2082100.         370200.
        2082200.         370200.        2082300.         370200.
        2082400.         370200.        2082500.         370200.
        2082600.         370200.        2082700.         370200.
        2082800.         370200.        2082900.         370200.
        2083000.         370200.        2083100.         370200.