Flow Title=Upstream 2D
Program Version=5.00
Use Restart= 0 
Initial Flow Loc=Bald Eagle Cr.  ,Lock Haven      ,50335   ,5000
Initial Flow Loc=Bald Eagle Cr.  ,Lock Haven      ,-897    ,11000
Initial Storage Elev=193             ,559.7
Initial Storage Elev=Upstream2D      ,566.42
Boundary Location=Bald Eagle Cr.  ,Lock Haven      ,28519   ,        ,                ,                ,                ,                
Interval=1HOUR
Lateral Inflow Hydrograph= 0 
DSS File=Bald_Eagle_Creek.dss
DSS Path=//FISHING CREEK/FLOW/01JAN1999/15MIN/RUN:PMF-EVENT/
Use DSS=True
Use Fixed Start Time=False
Fixed Start Date/Time=,
Is Critical Boundary=False
Critical Boundary Flow=
Boundary Location=Bald Eagle Cr.  ,Lock Haven      ,-1867   ,        ,                ,                ,                ,                
Friction Slope=0.0003
Boundary Location=                ,                ,        ,        ,                ,Upstream2D      ,                ,USFlow          
Interval=1HOUR
Flow Hydrograph= 204 
    5000 5229.73 5580.71 5959.22  6366.9 6805.35 7275.93 7779.77 8317.91 8891.23
 9500.3410145.7610828.0911548.0112306.4213105.2213947.8214838.5315782.0416784.35
17853.8419000.3620234.32 21568.123017.3924600.1926337.5228260.2130413.8132850.68
35613.8738722.9242168.6545923.2749954.7554231.9658723.8963399.8268229.1373178.08
   7820783272.0988327.9893327.4798221.05102959.3107496.2111791.6115809.6119517.2
122886.1125892.9128518.6130747.2132566.6  133968134943.8135490.5135616.7135349.5
134731.8133812.6132634.3131227.8129615.1127813.1125837.1123706.7121450.4119103.2
116699.3114265.3111818.6109371.1106932.3104509.9102110.899741.9897409.8495119.15
92872.34 90670.388513.1386400.6284332.4682308.3880328.0378390.9176496.2974643.34
 72831.371059.6169327.8667635.7365982.7964368.3262791.4161251.13 59746.558276.65
56840.7655438.1354068.1452730.1651423.52 50147.548901.3947684.5246496.2345335.96
 44203.143097.0942017.3440963.26 39934.338930.0237950.09 36994.336062.3435153.76
34267.97 33404.432562.4231741.4830941.0230160.5629399.6328657.7827934.5527229.49
26542.15 25872.1 25218.924582.1623961.4823356.4922766.8322192.1421632.0721086.27
20554.4420036.4119531.9519040.7718562.5418096.9217643.5717202.1416772.3116353.76
15946.1915549.2915162.83 14787.514427.8814095.3913801.0413541.74 13304.113078.45
12860.0812647.1212438.8212234.9112035.2211839.6411648.0711460.4211276.6111096.55
10920.1510747.3310578.06 10412.910255.6310117.3610012.38 9941.74 9891.24  9849.7
 9811.59 9774.72 9738.33 9702.18 9666.19 9630.34 9594.62 9559.04 9523.59 9488.27
 9453.09 9418.03  9383.1 9348.31 9313.64  9279.1 9244.69  9210.4 9176.25 9142.22
 9108.31 9074.53 9040.88 9007.35
Flow Hydrograph Slope= 0.002 
DSS Path=
Use DSS=False
Use Fixed Start Time=False
Fixed Start Date/Time=,
Is Critical Boundary=False
Critical Boundary Flow=