Geom Title=U.S 2D - D.S 1D No Dam
Program Version=5.03
Viewing Rectangle= 1965043.85 , 2092643.59732271 , 373757.900984197 , 286644 

River Reach=Bald Eagle Cr.  ,Lock Haven      
Reach XY= 153 
2030409.85408818335556.732414952 2030488.5640282  335646.6865186
  2030658.608905   335896.751516  2030868.663842  336086.8035434
 2031128.7313545  336186.8286942  2031458.818593  336156.8211489
 2031738.8932561  336156.8211489 2032038.9729493  336276.8534503
 2032339.0505221  336516.9159326 2032639.1302153  336847.0031711
 2032939.2099086  337117.0731986 2033219.2845717  337337.1327713
 2033499.3571143  337607.2027988 2033839.4468678  337817.2598564
 2034219.5466817  338027.3147935   2034529.62889  338197.3596702
 2034829.7085832  338427.4196375 2035089.7760957  338677.4867553
 2035379.8532739   338967.561813 2035479.8805451  339177.6167501
 2035739.9480576  339497.7014735 2035960.0055097  339677.7488653
  2036270.087718  339787.7786517 2036560.1648962  339937.8184983
 2036850.2420744  340127.8684052 2036990.2772854  340367.9308875
  2037190.331828  340738.0281863 2037270.3519485  341068.1154247
 2037290.3569787  341438.2127235 2037290.3569787  342068.3796552
 2037160.3221622  342458.4819842 2036900.2546498  342908.6015241
 2036600.1749565  343188.6761872 2036380.1175044  343318.7088831
 2036240.0801728  343518.7634256  2036270.087718  343798.8359682
  2036460.137625   344038.900571 2036800.2273785  344208.9454478
 2037050.2944964     344429.0029 2037110.3095868  344879.1203193
 2037070.2995265  345209.2075578 2036880.2496196  345569.3023415
 2036870.2471045  345839.3744895 2037040.2919813   346169.461728
 2037340.3695541  346559.5640569 2037650.4517624   346829.636205
 2038110.5738173  347169.7259585 2038450.6635709  347329.7683202
 2038810.7583546  347329.7683202  2039130.843078  347179.7284736
 2039380.9080754  347139.7162928 2039630.9751932  347229.7410489
 2039781.0150399  347589.8358326 2039921.0502509  348089.9679479
 2039961.0624317     348310.0254  2039931.052766  348620.1076084
 2039851.0326454  348810.1575153 2039680.9877686  349030.2149674
 2039590.9630124  349210.2623593 2039540.9504371   349370.304721
 2039640.9777083  349480.3345073 2039831.0276152  349530.3470827
 2040041.0825523  349480.3345073 2040271.1425195  349480.3345073
 2040441.1873963  349450.3269621 2040701.2570293   349240.272025
 2040901.3094513  349070.2271483 2041081.3568431  348940.1923318
   2041271.40675   348770.147455 2041441.4516268  348590.1000631
 2041661.5090789   348500.075307 2041971.5912873  348430.0577014
 2042231.6609202  348440.0602165 2042521.7359779  348470.0677617
 2042771.8030958  348480.0702768 2043081.8853041  348430.0577014
 2043231.9251507  348360.0400959 2043371.9603618  348250.0103096
 2043522.0002084  348069.9629177 2043772.0673263  348009.9478273
 2044062.1423839  348049.9578876 2044372.2245923   347909.920556
 2044602.2845595  347809.8932848 2044882.3592226  347669.8580738
 2045182.4389159  347619.8433779 2045592.5462749  347669.8580738
 2045832.6108777  347599.8383477  2046062.670845  347369.7783805
 2046302.7333272   347039.691142 2046572.8054753  346789.6240241
 2046822.8704726  346529.5565117 2046982.9128343  346239.4793335
 2047232.9799522  346149.4566979 2047583.0722209  346179.4642431
 2047883.1497936  346259.4843637 2048223.2395471  346329.5040897
 2048623.3465117  346469.5414213 2049023.4513556   346639.586298
 2049323.5310489  346809.6311748 2049763.6459532   347039.691142
 2050113.7382218  347169.7259585 2050503.8426713  347249.7460791
 2050793.9177289  347259.7485942 2051154.0125126  347339.7708353
 2051344.0624195  347409.7884408 2051654.1446279  347509.8157121
 2052064.2541075  347739.8756793 2052454.3564364  347999.9431917
 2052914.4784913  348380.0451261 2053314.5833353  348670.1201837
 2053644.6705738  348880.1772413 2053994.7628424  349040.2174825
 2054224.8228096  349100.2346935 2054484.8924426  349150.2472688
 2054774.9675003  349180.2548141 2055025.0346181  349200.2598442
 2055255.0945854  349300.2871155 2055495.1570677  349530.3470827
 2055625.1918841  349680.3869293  2055875.259002  350000.4716527
 2055965.2816377  350230.5316199 2056095.3164542  350390.5739816
 2056425.4036926  350580.6238886   2056675.46869  350680.6511598
 2056995.5534134  350740.6662503 2057355.6481971  350730.6637352
 2057725.7454959  350720.6612201 2058165.8625207  350680.6511598
 2058545.9623345  350540.6138283 2058806.0319675  350370.5689515
 2059016.0869046  350250.5366501 2059236.1443567  350210.5265898
 2059636.2492007  350150.5114993 2060066.3637104  350130.5064692
 2060526.4857654  350230.5316199 2061106.6380012  350390.5739816
 2061396.7151794  350520.6087981 2061626.7751466  350690.6536749
 2062066.8921714  350990.7333681 2062306.9546537  351260.8033957
 2062707.0594977  351600.8931492 2063017.1417061  351880.9678123
 2063427.2490651  352281.0726563 2063707.3237282   352511.134744
 2064187.4508133  352761.1997414 2064557.5481121  352971.2546785
 2064977.6579862  353181.3096155 2065517.8001618  353541.4065198
 2065827.8823701  353841.4840925 2066127.9620634  354081.5486953
 2066398.0342114  354231.5885419 2066868.1566609   354241.591057
 2067116.2728961  354301.7397405
Rch Text X Y=1993148.2289745,305718.8274359
Reverse River Text= 0 
Reach Upstream Storage Area=Upstream2D      

Type RM Length L Ch R = 1 ,50335   ,1065.297,1016.466,921.016
XS GIS Cut Line=5
2027293.95537787341465.7837858392028880.12694829338533.768192885
2029280.67498195337588.4722040052030145.85966768335986.277948853
2030914.91460657334768.611163148
Node Last Edited Time=Nov/06/2006 08:56:17
#Sta/Elev= 450 
       0   858.9   18.13   851.1   24.63  848.23   26.57  847.73   30.14  846.87
    53.5  840.35   66.13  837.37   80.43  833.59  107.64  827.22   134.3  820.11
  149.14  816.34  161.23  812.47  183.58  805.64  190.64  803.41   215.1  795.01
  232.15  789.53  242.03  786.44   260.3  780.97  273.65  776.66   295.9  770.72
  315.16  765.47  322.83  763.95  337.02  760.56  349.77  758.02  356.66  756.76
  379.81  753.53  398.16  750.92  403.63  750.46  413.74  749.56  430.57  749.02
  439.67  748.64  470.23  747.41  481.17  747.19  484.43  746.76  490.46   745.3
  511.37  740.68  522.68  737.65   538.3  735.32  564.18  731.55  567.18  731.11
  605.68  725.61   619.1  723.76   643.9  720.73  646.03  720.46  651.06  720.08
  688.69  716.92   699.9  716.39  720.62   715.4  726.83  715.05   730.2  714.82
  753.77  714.17   771.7  713.03  807.64  710.83   813.2  710.11  834.57  707.75
  854.71  704.73  874.06  701.84  888.43  700.19  896.21  699.49  915.37  697.65
  937.71  696.06  950.78  695.23  969.24   694.4  979.22  693.91  996.17  692.36
 1020.72  687.69  1023.1   687.5  1027.5  687.19 1050.04   685.9 1062.23   685.1
 1076.97  684.56 1103.73  683.25 1130.84  681.45 1145.24  679.82 1157.77  678.33
 1180.94  674.49  1184.7   673.8 1186.74   673.3 1193.58  671.53 1228.24  663.06
 1238.57  660.54 1257.66  655.14 1269.75  652.83    1284  650.42 1311.25  645.85
 1319.37  644.83 1334.37  642.93 1352.76  641.39 1373.24  641.28 1394.26  641.08
 1400.17  641.66 1411.09  642.69 1435.76   644.4 1454.04  646.82 1477.27  649.53
 1480.97  650.05 1487.81  651.03 1518.77  654.93 1534.84  654.43 1560.27  656.77
 1561.77  656.72 1564.53  656.97  1588.7   657.9 1601.78  659.17 1641.25  660.62
 1643.28  660.68  1669.5  660.25 1684.79  660.38 1717.97  659.78 1723.37  659.27
 1726.29  659.19  1750.3  657.05 1767.79  657.09 1777.24  656.37 1794.69  656.63
 1804.17  656.29  1809.3  656.52  1831.1   655.6  1850.8  655.96 1858.04  655.61
 1871.41  655.38 1884.97  655.27 1892.31  655.66  1911.9   655.3 1933.81  655.77
 1938.84  655.63 1948.13  655.57 1965.77  654.18 1975.31  653.46  1992.7  650.13
 2016.82  645.38 2019.64   645.4 2024.85  645.59 2046.57  646.74 2058.32  647.61
  2073.5  649.71 2099.83  654.51 2101.57  654.81 2127.37  657.78 2141.33  658.89
 2154.31  659.21 2178.29  658.75 2181.24  658.68 2182.83  658.58 2208.17  655.93
 2224.34  653.91 2235.11   652.5 2255.01  649.81 2265.84  647.93 2288.97  644.28
 2307.35  642.02 2315.91  640.89 2331.73  639.52 2348.85  638.34 2369.77  637.27
 2390.35  636.51 2396.71  636.37 2408.45  636.24 2423.64  635.53 2431.86     635
 2450.57  633.89 2473.36  632.03 2485.17  628.56 2504.44   622.8 2514.87  620.95
 2549.87  615.03 2556.37   613.9 2561.89  613.59 2585.24  612.86 2597.87  612.59
 2612.17  614.06 2638.61  616.56 2639.38  616.65 2666.04  621.16 2680.88   623.4
 2692.97  625.24 2715.32  627.46 2722.39  628.27 2746.84  629.94 2763.89   630.1
 2773.77  630.34 2792.05  629.77 2805.39  629.94 2827.64  630.24  2846.9  629.81
 2854.57  629.86 2868.76  629.97 2881.51  630.49  2888.4  630.81 2908.44  632.49
 2929.91  634.28 2935.37  635.06 2945.48  636.31 2962.31  639.61 2971.41   641.2
 2989.24  646.99 3012.91  648.27 3016.17  648.44  3022.2  648.71 3043.11  649.37
 3054.42  649.78 3070.04  650.15 3095.92  651.97 3096.97  652.01 3098.92  652.19
 3137.42  655.79 3150.84  656.89 3175.64  660.54 3177.77  660.84 3178.93   661.1
  3182.8  661.86 3220.43  668.53 3231.64  670.31 3252.36  674.44 3258.57  675.04
 3261.94  675.42 3285.51  676.58 3303.44  678.26 3329.08  680.19 3333.57  680.57
 3339.57  681.04 3344.44  682.06 3367.42  685.48 3384.08  688.61 3421.66  693.96
 3423.73  694.14 3450.96  694.31 3463.38  693.08 3478.81  691.67 3503.02  688.53
 3515.23  686.76  3534.5  684.48 3542.67  683.03 3562.35  680.71 3582.32  676.87
 3608.79  672.48 3618.04  671.26 3621.96  670.55 3645.89  667.97 3661.61  665.52
 3673.74  664.69 3701.25   661.9 3702.36  661.86 3729.43  661.51  3740.9  660.93
 3757.28  660.96 3780.55  660.51 3785.12  660.46 3795.92  660.42 3812.97  660.43
 3820.19  660.19 3840.82  660.04 3859.84  660.51 3868.66  660.29 3889.49  660.69
 3896.51  660.83 3899.48  660.93 3906.83  659.96 3939.13  657.38 3952.21  654.09
 3978.78  650.75 3983.06  650.18 4018.43  644.08 4035.75  641.09 4058.07  638.59
 4063.59  637.74 4076.62  636.75 4091.44  635.39 4097.72  635.21 4113.23  635.02
 4137.36  634.08 4147.13  633.96 4170.19  635.01 4174.98  635.26 4177.01  635.59
 4182.03  636.28 4216.66  640.55 4230.67  642.68  4256.3  645.11 4258.52  645.43
 4263.75   645.6 4286.37  646.02 4295.95  645.66 4319.62  644.22  4335.6  643.62
 4342.06  643.25 4357.32  641.66 4369.59  640.46 4375.94  639.55 4397.19  635.97
 4417.43  633.11 4423.47  632.28 4434.67  632.17 4450.41  631.38 4458.91  631.65
 4477.35  631.74  4500.4   633.5 4511.49   633.8 4531.23  634.63 4541.89  634.98
 4558.17  634.75 4583.37  633.78 4588.32  633.62 4612.05  633.31 4624.86  633.31
 4638.99  634.07 4665.15  636.64 4666.35  636.73 4692.87  640.43 4707.83  642.74
 4719.81  644.29 4741.98   647.3 4749.32  647.98 4773.68  648.37 4790.81  648.53
  4818.8  647.74 4827.56  647.35 4832.29   646.9  4854.5  643.03 4873.78  640.05
 4876.72  615.66 4934.27  601.13 4949.65  592.51 4957.24  588.21 4959.57  587.35
 4968.32  584.85 5003.05  574.29 5032.11  566.87 5061.63   566.1 5073.76  565.89
 5099.97  565.45 5114.09  565.45 5117.77  565.75 5161.46  567.23 5181.81  566.28
 5223.35  565.28 5233.28  565.01 5263.13  565.72 5284.23  565.89 5291.16  565.97
 5298.82  564.97 5358.77  564.96 5366.41  565.96 5368.29  565.94 5413.45  565.33
 5434.91  565.53 5468.57  565.86 5488.49  565.61 5502.02  565.43 5522.39  565.58
 5556.24  565.82 5562.95  565.33 5580.81  565.14 5590.59  564.86 5614.52  563.98
 5623.14  564.03 5629.61  564.02 5635.59   564.1 5648.26  564.18  5692.3  564.11
 5699.82  564.05 5712.67  564.05 5714.35  564.06 5752.06  565.34 5805.88  565.41
 5866.62  565.25 5942.99  565.01 6035.15  565.17 6079.63  565.72 6110.35  566.18
 6134.89  566.55  6181.1  566.27 6213.15  566.06 6278.16  565.48 6300.62  564.33
 6305.89  563.96 6314.74  563.81 6325.21  563.96 6333.68  564.26 6373.67   564.5
 6405.94  564.37 6513.08  563.69 6521.06  563.73 6526.04  561.53 6528.47  560.48
 6533.14  559.54 6537.41   558.7 6540.56  558.04 6545.96  557.05 6548.04  556.61
 6555.35  555.31 6560.18   555.3 6577.33  555.286588.848555.66826601.166555.8818
6619.443555.72166641.694555.56136665.137555.0273 6684.55  555.16 6694.63  555.87
 6696.64  555.81 6703.77  555.89 6743.75   557.4 6825.37  560.78 6840.34  560.78
 6857.49  564.59 6869.91  566.76 6877.62  567.45 6911.57  570.83 6934.75  573.14
 6955.74  574.39 6988.04  580.08 6995.44  581.32 7011.91  583.19 7028.98  583.92
 7041.07  585.92 7051.07  586.59 7068.61  588.04 7084.64   589.6 7099.42  590.84
 7144.09   596.9 7168.75   600.9 7186.93  602.34 7190.58  603.99 7198.87  602.29
 7212.25   605.4 7217.69  605.59 7256.17  609.65 7257.33  609.61 7266.26  610.58
 7317.37  626.57 7339.01  640.86 7361.57  645.92 7367.93  647.72 7391.93  653.96
 7411.11  657.04  7418.4  659.64 7429.93  661.75 7454.28  666.49 7471.32  668.79
 7497.46  672.26  7498.3   672.4 7524.25  678.28 7540.63   682.5 7550.71  685.14
 7566.66  689.48 7577.17  691.47 7583.81  692.74 7603.63  696.58 7621.29  699.91
#Mann= 3 , 0 , 0 
       0     .06       0 6521.06     .04       0 6825.37     .08       0
#XS Ineff= 1 ,-1 
122.24113635.087650.2808
Permanent Ineff=
       F
Bank Sta=6521.06,6825.37
XS Rating Curve= 0 ,0
XS HTab Starting El and Incr=556.0273,1, 100 
XS HTab Horizontal Distribution= 5 , 5 , 5 
Exp/Cntr=0.3,0.1

Type RM Length L Ch R = 1 ,49318   ,768.144,981.185,981.588
XS GIS Cut Line=5
2027934.83307993341738.1567031892029729.29106981338693.986558138
 2030995.0237892336675.2215845952031315.46264023335761.970965184
2031603.85824231335281.313748901
Node Last Edited Time=Nov/06/2006 08:56:17
#Sta/Elev= 450 
       0  819.35    2.32  818.69   23.77  812.29    44.7  806.46   50.43  804.88
   60.15   802.3   77.09  798.98   87.07  796.94  103.75  793.52  129.44  787.93
  132.04  787.34  157.07  779.72  171.82  775.12  183.73  771.54  203.93  765.62
  210.39  764.19  214.19  763.38  237.05   759.2  256.57  755.86  275.81   753.3
  290.36  750.63  298.95  749.51  332.16  746.42  343.68  745.33   347.7  744.89
  370.34  743.67     397  741.99  419.58  740.24  426.07  739.77  450.32  738.07
  468.44  736.71  476.98  736.14  491.47  735.14  510.82  733.35   530.3   731.4
  553.19  729.08  556.96   728.6  563.35   727.9  595.57  725.75  610.28  724.57
  635.24   723.2  637.94  722.97   663.6   720.5  680.32  719.39  690.26  718.38
  707.13  716.63  722.69  715.25  743.58  712.75  765.07  709.81  770.24   708.4
  779.01   705.8  807.44  696.93  823.56  694.06  849.82  689.46   850.9  689.34
  876.88  687.59  892.19  686.46  922.78  687.86   930.2  688.23  934.57  688.32
  956.86  691.03  976.94   692.7  994.67  693.46 1010.18  693.45 1019.32  692.76
 1036.83  690.18 1061.69  685.99 1063.49  685.55 1066.55  684.89 1090.15  681.53
 1104.07  680.25 1116.81  678.65 1138.44   676.6 1146.44  676.04 1170.13  674.47
 1188.82  672.01 1196.79  671.37 1210.33  668.71 1231.19  665.15 1250.11  662.77
 1273.56  659.47 1276.77  659.35 1282.21  659.25 1303.43  658.88 1315.94  657.78
  1354.1  657.81 1356.75   657.9 1358.31   657.9 1383.41  659.31 1400.69  659.56
 1425.98  659.57 1436.73  659.76 1443.06  659.52 1463.39  657.74 1485.44  655.08
 1490.05   654.2 1497.87  652.68 1516.71  648.64 1527.81  646.13 1569.76  637.71
 1570.19  637.66 1596.69  636.39 1612.56  636.07 1641.64  637.87 1650.01  638.64
 1654.94   638.6 1676.67  640.23 1697.31  639.89 1703.33  639.91 1713.53  639.73
 1729.99  639.39 1739.69  638.93 1756.65  638.43 1782.06  638.54  1783.3  638.64
 1785.41  638.91 1809.96  641.47 1824.44   643.4 1836.62  643.79  1857.3  644.07
 1866.81  643.47 1889.94  640.56 1909.19  638.61  1916.6  637.04 1929.18  635.79
 1943.26  634.64 1951.56   634.5 1983.69  633.36 1993.94  632.77 1996.58  632.59
 2001.07  632.64 2023.24  632.07 2036.31  633.41 2072.96  636.18 2076.56  636.32
 2078.68  636.46 2103.22  636.58 2121.06  636.92 2129.88  636.24 2144.84  635.07
 2156.54  633.78 2163.43  633.28  2183.2  629.23 2205.81  626.03 2209.86  625.27
 2216.73   624.4 2236.52  621.36 2248.19  620.06 2263.18  619.65 2288.61  619.25
 2290.56  619.21  2316.5  625.65 2332.93  628.66 2343.16  630.79  2360.5  633.76
 2369.82  635.63 2375.31   636.1 2396.48  640.19 2417.68  641.46 2423.14  642.18
 2432.39  642.47  2449.8  644.15 2460.06  644.44 2476.46  645.44 2504.27  646.51
 2529.77  645.33 2544.81  644.41 2556.44  643.48 2576.16  642.65 2587.18  643.01
 2603.02  643.54 2629.56  644.11 2636.41  644.02 2648.04  644.81 2663.07  645.16
 2671.93  646.25 2706.24   649.5 2714.31  650.05 2716.39  650.09 2719.93   650.4
 2743.05   651.9 2756.68  653.42 2769.71  653.73 2791.82  655.34 2796.37  655.56
 2799.06  655.84 2823.03   656.3 2841.43  656.99 2849.69  657.13  2863.7  656.69
 2876.35  656.46 2883.81  656.52 2903.01  656.62 2926.18   656.6 2929.67  656.73
 2935.59  656.71 2956.33  656.86 2968.56  657.21 2982.99  657.81 3007.47   658.7
 3009.65  658.89 3010.93  659.07 3036.31  662.88 3053.31  665.06 3062.97  666.96
 3079.36  668.62 3095.68  669.93 3116.29  671.56 3138.06  672.12 3142.95  672.36
 3151.24  672.37 3180.43  673.68 3196.27  674.33  3222.8  675.59 3223.13  675.61
 3249.59  675.58 3265.18  676.02 3295.02  676.11 3302.91  675.88 3307.55  675.87
 3329.56  674.83 3349.93   674.3  3366.9  675.72 3382.88  676.43 3392.31  676.77
 3409.54  678.59  3436.2  680.64 3438.79  680.78 3462.86  682.63 3477.05  683.06
 3489.52  683.05 3510.67  682.81 3519.43  681.86  3533.7  679.67 3542.78  678.22
 3562.28  675.79 3569.26  674.44 3580.41  673.09 3605.36  671.22 3622.23  669.21
 3648.45  667.01 3649.13  666.93 3675.19  661.98 3691.53  659.89 3701.67  657.79
 3717.85  655.42 3734.62  653.51 3754.64  650.31 3777.71  647.07 3781.12  646.47
 3786.57   645.6 3820.79  640.21 3834.08  636.73 3855.29  631.89 3860.57  630.68
 3863.88  630.43 3887.05  629.96 3906.96  630.37 3924.01  631.32 3940.01  632.44
 3950.05  633.06  3966.5  634.82 3992.73  636.42 3993.14  636.46 4019.46  640.33
 4036.22  640.66 4045.94  642.22 4061.45  642.91 4072.43  643.44 4079.31  643.44
 4098.91  645.39  4122.4  646.34 4125.39  646.48 4130.17  646.45 4165.48  645.88
 4178.35  644.05 4198.89  640.97 4204.84  639.65 4208.57  638.89 4224.85  635.36
 4251.66  628.72  4257.8  627.27 4267.61  626.22 4284.28  624.23 4294.74  623.66
 4310.77  622.63 4336.33   621.2 4340.35  620.76 4380.91  616.61 4390.21   616.7
 4405.05  615.93  4416.7  616.12    4424  616.09 4455.86  618.39 4467.09  619.23
 4473.77  620.06 4496.14  623.03 4510.17  624.65 4522.63  626.78 4542.49  629.99
 4549.11   631.3 4553.26  631.96 4575.59  636.17 4596.34  639.06 4602.07  639.63
 4611.21  640.01 4628.55  641.05 4639.43  640.94 4655.04  639.69 4679.92   636.1
 4682.52  635.53    4708  627.99  4725.6  622.12 4734.48  619.13 4748.65  614.81
 4760.97  612.33 4768.69     611 4774.27  609.87 4803.83  603.64 4836.21  602.33
 4842.75  602.11 4846.14  601.03 4858.34  594.48 4880.38  584.37 4890.17  579.44
 4927.43  572.05 4934.19   570.1 4951.23  567.78 4965.16  565.58 4971.49  565.16
 4985.19  565.16 5001.43  566.53 5034.95  566.06 5095.68  565.26 5167.46  565.16
  5190.6  565.12 5262.27  565.36  5284.2  565.44 5286.76  565.42 5319.36  565.28
 5376.98  566.85 5377.63  566.83 5439.29  564.65 5492.47  566.13 5505.93  566.48
 5522.21  566.12 5571.66  564.96 5593.59   565.9  5608.1  566.57 5615.95  566.12
 5636.39   565.2 5654.91  565.63  5673.3  565.97 5687.94  565.92 5713.19  565.63
 5737.84  566.32 5764.53  566.86 5795.89  565.95 5830.16     565 5854.12  565.97
  5879.7  567.03 5916.04  565.78 5916.45  565.76 5931.97  565.24  5953.3  565.81
  5976.6  566.44 5993.15  565.96 6026.42  565.07 6053.08  565.49 6082.24  565.54
 6114.39     565 6133.21  564.87 6187.26  566.29 6190.67  566.36  6195.3  566.25
 6240.16   565.1 6261.62  565.01 6335.29  562.81 6337.46  562.71 6346.21  560.22
 6351.67  556.82  6352.8  556.156365.299555.68546381.165555.56746408.929555.3904
6441.651555.7739 6458.45  556.16 6501.18  559.65 6507.23  560.14 6511.83  560.61
 6520.01  560.44 6536.32  560.69 6538.06  560.84 6539.74  560.92 6541.95  561.09
 6559.47   561.7 6582.33  563.91 6593.12  564.06 6636.68   564.9 6678.52  564.66
 6712.66  564.77 6734.92  564.85 6770.53  563.59 6789.68  562.66 6794.19  561.92
 6803.78  560.44 6839.92  560.44 6856.38  563.05 6860.52  565.43  6867.9  570.05
 6875.13  571.31 6884.29  572.89    6886  573.28 6899.22  578.21 6905.33  580.44
 6914.05  580.65 6974.11  589.63 6995.91  592.48 7014.12  595.15 7066.85  601.54
  7083.8   604.7 7086.92  605.48 7089.74  605.81 7095.51  606.98 7106.93  608.09
 7108.18  608.13 7109.47  608.09 7111.02  607.66 7130.39  608.03 7136.65  611.79
 7146.89  612.61 7156.48  613.52 7180.43  634.31 7193.75  638.04 7196.93  646.34
  7218.8  651.44  7239.5  656.18  7245.4  657.48 7272.01  663.26 7282.07  665.42
 7322.31  678.78 7324.64  679.55  7326.2  679.81 7351.83  684.86 7367.21  688.48
 7397.15  694.87 7405.05  695.91 7409.78  696.63 7431.65  699.08 7444.83  700.78
#Mann= 3 , 0 , 0 
       0     .06       0 6337.46     .04       0 6511.83     .08       0
#XS Ineff= 1 ,-1 
27.164692743.195651.8795
Permanent Ineff=
       F
Bank Sta=6337.46,6511.83
XS Rating Curve= 0 ,0
XS HTab Starting El and Incr=556.3904,1, 100 
XS HTab Horizontal Distribution= 5 , 5 , 5 
Exp/Cntr=0.3,0.1

Type RM Length L Ch R = 1 ,48337   ,695.601,811.293,824.214
XS GIS Cut Line=4
2028511.62216358342058.5955542192030626.51900448338774.097861289
2031587.83555758337171.9014856132032485.06561278335713.905031503
Node Last Edited Time=Nov/06/2006 08:56:17
#Sta/Elev= 450 
       0  768.51    2.45  768.18   22.96  763.15   36.16  760.55   49.36  757.59
   69.88   753.8   79.58  752.61  102.19  747.61  122.99  743.27   128.6  742.13
  137.31  740.44  155.01  735.75  166.41  732.93  204.73  722.53  209.83  721.62
  234.25  716.99  253.25  713.24  272.16  709.49  287.07  706.67  296.66   704.6
  313.48  701.29  339.59  695.39  340.08  695.25   366.3  687.97   383.5  682.97
  407.02  676.77  419.12  674.54  426.92  673.24  445.54  670.99  470.34  668.26
  474.45  668.17  498.36  668.19  513.75  668.26  524.77  669.23  541.88  670.29
  551.18  671.13  557.17  671.49  577.59  673.34  600.59  674.34     604  674.47
  609.31  674.11  630.41  673.21     644  670.72  676.73  666.55  687.42  665.79
  706.75   665.3  730.84   664.7  736.06  664.76  744.16  664.83  762.47  665.04
  774.26     665  788.88  665.25  811.59  665.42  815.29   665.3  817.67  665.15
   841.7   664.2  861.09  663.43  868.12  663.07  879.02  662.71  894.53  662.83
  904.51  662.93  920.94  662.02  946.45  660.44  947.93  660.31  973.76  655.38
  991.35  651.81 1000.17  649.66 1013.88  646.33 1026.58  643.96 1034.76  642.67
 1052.99  640.19 1078.18  637.35 1081.31   637.2  1121.6  636.05 1132.23  636.32
 1148.74  636.26 1158.64  635.92 1165.02  635.95 1194.45  634.18 1208.43  633.42
 1211.46  633.28 1216.17  632.89 1237.87  631.32 1251.85  629.92 1264.28   629.5
 1283.59  628.38  1290.7  627.92 1295.27  627.47 1317.11  627.01 1338.68  625.39
 1343.52  625.24 1351.02  624.58 1369.93  624.35 1396.34  622.96 1418.45  621.37
 1425.52  620.76 1449.16  618.53 1468.94  617.68 1475.57  617.33 1485.88  617.67
 1501.98  618.56 1512.36  619.63 1553.31  625.83 1555.77  626.44 1581.22  633.43
 1599.19  637.22 1620.74  640.78 1634.04  642.17 1642.61  642.46 1660.45  641.38
 1686.03   637.5 1688.17   637.2 1713.28  633.46 1729.44  630.98 1755.59  627.14
  1766.1     625 1772.86  623.68 1792.51  619.92 1816.28  615.56 1823.02  614.35
 1845.33  611.08  1859.7  608.92 1871.74  607.19 1890.45  604.57 1898.15  603.33
 1903.11  602.78 1924.56  600.59 1946.53   599.3 1950.98   599.3 1957.88  599.38
 1989.95  601.76  2003.8  603.76 2025.31  605.73 2030.21  606.57 2047.93  607.57
 2076.78  610.17 2083.03  610.78 2092.74  610.51 2109.44  611.29  2120.2  611.21
 2135.86  612.02 2160.17  611.98 2162.27  612.05 2163.62  612.01 2188.68  613.74
 2207.04  613.78 2215.09  613.68 2227.59  613.88  2241.5  613.41 2250.45  613.25
 2267.91  612.99 2293.87  614.24 2294.32  614.25 2295.02  614.34 2320.73  617.57
 2337.29  619.93 2347.15  621.37 2362.45  623.96 2373.56  625.64 2380.71  626.43
 2399.97  628.19 2424.12  629.55 2426.38  629.52 2429.88  629.39 2452.79  629.09
 2467.54  628.67  2479.2  627.62 2497.31  625.95 2510.96  624.58 2532.02  621.95
 2554.38  618.96 2558.44  618.41 2564.74  617.38 2584.85   615.1 2597.79  613.19
 2632.17  608.33 2637.67  607.59 2641.21  606.99 2664.08  605.45 2684.63  603.53
  2699.6   606.3  2716.9  610.23 2728.05  611.86 2743.31  613.62 2767.03  614.75
 2769.73  615.07 2771.46  615.19 2796.14  616.59 2814.88  616.64 2822.55  616.76
 2834.46  616.44  2858.3  615.79 2875.37  615.69 2901.72  615.98 2901.88  615.98
 2945.13  621.13  2954.6  622.49 2969.31  624.62 2981.02  626.46 2988.55  627.57
 3007.43  630.98 3031.97  635.52 3033.84  635.88 3036.74  636.49 3075.39  643.06
 3086.66  644.43 3104.17   646.9 3113.07  647.41  3118.8  647.83 3145.27  647.03
 3162.22  646.32 3165.89  645.74  3171.6  645.31 3192.31  641.33 3205.64  641.79
 3218.72  639.46 3239.03  642.69 3245.13  642.94 3249.06  643.56 3271.54  644.39
 3292.47  645.56 3297.95  646.02 3306.46  646.86 3335.89  648.56 3350.77  650.53
 3373.88  654.24 3379.31     655  3403.6  659.58 3422.73  663.04 3430.01  664.51
 3441.31  666.71 3456.42  669.62 3466.14   671.2 3482.83  674.19 3508.74  678.31
 3509.56  678.37 3535.65  679.55 3552.98  679.52 3562.06  678.97 3576.17  677.85
 3588.47   677.7  3596.4  677.45 3614.88  675.32 3639.81  672.77  3641.3  672.51
  3643.6  672.18 3667.71  666.66 3683.23  664.58 3694.12  662.28 3711.03  659.93
 3720.53  659.05 3726.65   658.7 3746.94   654.4 3770.07  649.63 3773.35  649.11
 3778.46  648.27 3799.76  643.66 3813.48  640.73 3826.17   637.8 3845.88  633.74
  3856.9  631.75    3879  628.38 3900.32  626.08 3905.41  625.76 3932.01  624.54
 3943.01  624.28 3984.62  624.56 3985.58  624.58 4011.83  624.53 4028.15  623.25
 4055.57  619.37 4065.04   618.4 4070.72  617.73 4091.65  614.52  4113.3  611.24
 4118.26  610.51 4126.53  609.31 4144.86  607.67 4155.87  606.89 4171.47  606.21
 4197.48  604.42 4198.44   604.3 4224.68  601.77 4241.01  599.67 4251.29  597.62
 4268.43   592.8 4283.58  588.15  4304.5     585 4326.15  582.79 4331.11  582.52
 4339.38  582.45 4357.72  582.75 4368.72   583.3 4384.33  585.18 4410.33  588.63
 4411.29  588.75 4437.54  593.43 4453.87  596.16 4464.15  597.97 4481.29  600.59
 4490.75  602.12 4517.36  605.17 4539.01  606.22 4543.97  606.42 4552.24  606.17
 4570.58   606.3 4581.58  605.99 4623.19  601.57 4624.15  601.45  4650.4  596.15
 4666.72  593.07 4694.14  588.75 4703.61  587.68 4709.29  587.21 4754.76  598.07
 4765.29  601.16  4810.9  592.61 4813.59  592.09    4814  591.81 4834.61  583.97
 4854.95   574.3 4874.83  568.34 4888.82   566.9  4896.9  566.37 4911.93  566.68
 4923.55  565.38 4935.47  564.95 4949.16  564.95 4955.23  566.04 4959.37   566.8
 4974.52   566.8 5007.69  566.98 5030.76  566.67 5064.35  566.48 5122.59  566.26
 5145.77  566.13 5182.23  565.74 5189.03   565.7 5200.78  565.83 5250.38  566.33
 5295.41  565.38 5309.36  565.07  5328.7  565.32 5376.62  565.92 5410.63  565.62
 5435.33  565.39 5457.44  565.93 5474.35  566.34 5496.03  565.54 5499.68   565.4
 5542.01  566.81 5567.43  565.42 5570.96  565.25 5586.99  565.65 5633.08  566.82
 5687.31  565.36 5691.61  565.24 5699.72  565.45 5746.91  566.62 5753.64  566.81
 5774.96  566.05 5792.15  565.42 5833.15  566.32 5841.72  566.51 5847.35  566.37
 5886.88  565.41 5912.01  566.16 5939.26  566.94 5985.07  565.57  5993.9   565.3
  6002.6  565.58 6047.89  567.14 6103.82   566.2 6115.28  566.38  6153.7  566.99
 6186.75  567.28  6262.9  567.94 6304.91  566.39 6368.68  564.05  6440.8  565.68
 6484.41  566.56 6543.14  566.37 6589.13  566.29  6627.3  564.26 6653.62  562.97
 6666.23  566.91 6668.41  567.62 6683.48  563.93 6702.77  559.15 6705.74  558.98
 6720.35  558.16 6723.54  557.46 6729.05   556.3 6754.68  556.29 6820.23  556.29
 6823.58  557.34 6832.92  558.28 6839.95  559.38 6846.54   570.4 6852.96  568.63
 6866.61  572.04 6872.95  579.69 6878.12  579.72 6880.36  579.23 6887.86  577.39
 6916.41  585.38 6921.17  586.71    6922  587.02 6922.97  586.98 6963.61  589.54
 6990.27  591.25 6990.85  591.38 6995.53  593.49 6999.71  595.32 7000.96  595.38
 7008.26   595.6  7014.4  595.41 7019.65  595.93 7028.04  594.17 7034.18  598.81
 7057.62  602.98 7061.95  603.81 7064.54  604.33 7072.06  605.69 7096.13  610.33
 7103.35  617.84 7121.15  635.29 7145.17  641.14 7147.68  641.76 7151.76  642.65
 7174.22  647.05 7188.03  649.69 7221.42  655.63 7227.29  656.78  7230.9  657.55
 7253.82  661.53 7273.76  665.54 7291.07  671.62 7306.89  678.43 7316.62  682.76
 7333.42   687.6 7359.49  695.28 7360.72  695.61 7386.49  700.88 7402.35  704.11
 7430.37   708.5 7439.56  710.25 7445.21  711.29 7466.09  714.28 7486.91  717.22
#Mann= 3 , 0 , 0 
       0     .06       0 6668.41     .04       0 6846.54     .08       0
#XS Ineff= 1 ,-1 
37.351443353.016650.5043
Permanent Ineff=
       F
Bank Sta=6668.41,6846.54
XS Rating Curve= 0 ,0
XS HTab Starting El and Incr=557.29,1, 100 
XS HTab Horizontal Distribution= 5 , 5 , 5 
Exp/Cntr=0.3,0.1

Type RM Length L Ch R = 1 ,47526   ,934.322,923.961,920.749
XS GIS Cut Line=3
2029088.41336775342475.1662726112031347.50588917338645.920624457
2033270.13899535336130.475749895
Node Last Edited Time=Nov/06/2006 08:56:17
#Sta/Elev= 450 
       0  714.94   16.94  712.49   52.74  706.38   66.11  702.29   88.78  696.01
   95.12  694.22  104.25  692.75  137.51  687.31  146.08  685.84  160.62  683.72
  172.74  681.54  179.89  680.49   199.4  677.31  222.27  674.44  232.46  673.13
  252.71  670.59  264.66  669.01  279.37  667.17  304.31  663.82  307.04  663.43