Flow Title=1972 Flood Event - 2D to 2D Run
Program Version=5.00
Use Restart= 0 
Initial Storage Elev=Upper 2D Area   ,630
Boundary Location=                ,                ,        ,        ,                ,BaldEagleCr     ,                ,DSNormalDepth   
Friction Slope=0.0003
Boundary Location=                ,                ,        ,        ,                ,BaldEagleCr     ,                ,DS2NormalD      
Friction Slope=0.0003
Boundary Location=                ,                ,        ,        ,Dam             ,                ,                ,                
Gate Name=Gate #1     
Gate DSS Path=
Gate Use DSS=False
Gate Time Interval=1HOUR
Gate Use Fixed Start Time=False
Gate Fixed Start Date/Time=,
Gate Openings= 200 
       2       3       4       4       4       4       4       4       4       4
       4       4       4       4       4       4       4       4       4       4
       4       4       4       4       4       4       4       4       4       4
       4       4       4       4       4       4       4       4       4       4
       4       4       4       4       4       4       4       4       4       4
       4       4       4       4       4       4       4       4       4       4
       4       4       4       4       4       4       4       4       4       4
       4       4       4       4       4       4       4       4       4       4
       4       4       4       4       4       4       4       4       4       4
       4       4       4       4       4       4       4       4       4       4
       4       4       4       4       4       4       4       4       4       4
       4       4       4       4       4       4       4       4       4       4
       4       4       4       4       4       4       4       4       4       4
       4       4       4       4       4       4       4       4       4       4
       4       4       4       4       4       4       4       4       4       4
       4       4       4       4       4       4       4       4       4       4
       4       4       4       4       4       4       4       4       4       4
       4       4       4       4       4       4       4       4       4       4
       4       4       4       4       4       4       4       4       4       4
       4       4       4       4       4       4       4       4       4       4
Boundary Location=                ,                ,        ,        ,                ,Upper 2D Area   ,                ,Upstream Q      
Interval=1HOUR
Flow Hydrograph= 141 
    1000    3000    6500    8000    9500   11000   12500   14000   15500   17000
   18500   20000   22000   24000   26000   28000   30000   34000   38000   42000
   46000   50000   54000   58000   62000   66000   70000   73000   76000   79000
   82000   85000   87200   89400   91600   93800   96000   96800   97600   98400
   99200  100000   99600   99200   98800   98400   98000   96400   94800   93200
   91600   90000   88500   87000   85500   84000   82500   81000   79500   78000
   76500   75000   73500   7200070666.6669333.34   6800066666.6665333.33   64000
62666.6761333.33   6000058666.6757333.33   5600054666.6753333.33   5200050666.67
49333.33   4800046666.6745333.33   4400042666.6741333.33   4000039166.6738333.33
   3750036666.6735833.33   3500034166.6733333.33   3250031666.6730833.33   30000
29166.6728333.33   2750026666.6725833.33   2500024166.6723333.33   2250021666.67
20833.33   2000019655.1719310.3518965.5218620.6918275.8617931.0417586.2117241.38
16896.5516551.72 16206.915862.0715517.2415172.4114827.5914482.7614137.93 13793.1
13448.2813103.4512758.6212413.7912068.9711724.1411379.3111034.4810689.6610344.83
   10000
Flow Hydrograph Slope= 0.001 
DSS Path=
Use DSS=False
Use Fixed Start Time=False
Fixed Start Date/Time=,
Is Critical Boundary=False
Critical Boundary Flow=
