Flow Title=PMF for 1D - 2D
Program Version=5.00
Use Restart= 0 
Initial Flow Loc=Bald Eagle Cr.  ,Lock Haven      ,137520  ,1000
Initial Flow Loc=Bald Eagle Cr.  ,Lock Haven      ,81914   ,1000
Initial Storage Elev=255             ,631
Initial RRR Elev=Bald Eagle Cr.  ,Lock Haven      ,81914   ,657
Boundary Location=Bald Eagle Cr.  ,Lock Haven      ,137520  ,        ,                ,                ,                ,                
Interval=15MIN
Flow Hydrograph= 337 
  729.01  728.19  727.37  726.54   725.7  724.88  724.09  723.33  722.63     722
  721.43  720.94  720.53   720.2  719.97  719.83  719.78  719.82  719.96   720.2
  720.52  720.94  721.43     722  722.64  723.33  724.09  724.96  726.09  727.83
   730.6  734.79  740.73  748.69  758.86  771.41  786.48  804.19  824.64  847.93
  874.14  903.34  935.55  970.77 1008.92 1049.83  1093.3 1139.08 1186.94 1236.64
 1287.93 1340.66 1394.82 1450.69 1508.66 1569.09 1632.24 1698.33 1767.65 1840.61
 1917.77 1999.75  2087.2 2180.73 2280.92 2388.38 2503.66 2627.23 2759.45 2900.59
 3050.86 3210.41 3379.37 3557.89  3746.2 3944.78 4154.99 4379.38 4621.16 4883.33
 5168.39  5478.5 5815.55  6181.3 6577.67 7006.84 7471.05 7972.44 8513.18 9095.58
 9721.9310394.1911113.9611882.7312701.7513571.9214493.95 15468.716497.1517580.61
18721.7519925.4621197.9122545.7723977.6425505.4927143.3728906.1730811.5732881.99
35143.1337625.0440371.73 43448.346929.5450876.9655318.4660240.9365604.6771363.94
77474.2383891.2790571.1897470.19104540.1111724.3118960.1126182.8  133325140315.8
147084.6  153566159702.3165442.2170738.9175551.6  179847  183598186781.7189380.9
191382.8192776.9193557.9193738.2193356.4  192474191160.8189477.6187468.3185164.5
182590.2179767.3176723.9173500.6170147.4166713.3163236.2159740.8156244.4152760.4
149299.8145872.6142488.5139156.9135884.5132674.8  129529126447.3123429.5120474.9
117583.4114754.3  111987109280.4106633.3104044.7101513.7 99039.896622.4894261.13
91954.7489702.0287501.6185352.1583252.3681201.0979197.33 77240.2 75328.873462.17
71639.2869859.1368120.74 66423.264765.6663147.2961567.2860024.7758518.9457049.01
55614.3254214.4252849.0151517.6450219.6548954.2547720.5746517.7545344.9744201.46
43086.5241999.4740939.68 39906.538899.2737917.3636960.14   3602735117.3734230.69
33366.4232524.0431703.0630902.9630123.2429363.4828623.4427902.79 27201.126517.92
25852.74 25205.124574.4923960.4423362.5222780.2822213.2721661.1921124.9920611.26
20136.2819715.7819345.3419005.8618683.4918371.5518067.3117769.7517478.4417193.17
16913.77 16640.116372.0316109.4415852.2115600.2115353.3315111.5114875.57 14650.9
14453.38 14303.414202.4914130.3414070.9914016.5513963.88 13911.913860.2513808.84
13757.62 13706.613655.7713605.1313554.6713504.4113454.3313404.4313354.72 13305.2
13255.85 13206.713157.7213108.9213060.3113011.8812963.6212915.5512867.6512819.93
12772.3912725.0212677.8312630.8212583.9712537.3112490.8112444.4912398.3412352.36
12306.5512260.9212215.4512170.1512125.0112080.0512035.2511990.6211946.1511901.85
11857.7111813.7411769.9311726.2811682.7911639.47 11596.3 11553.311510.4511467.77
11425.2411382.8711340.65 11298.6 11256.711214.9511173.3611131.9311090.6411049.51
11008.5410967.7110927.0410886.5210846.1410805.9210765.85
DSS File=Bald_Eagle_Creek.dss
DSS Path=//BALD EAGLE 40/FLOW/01JAN1999/15MIN/RUN:PMF-EVENT/
Use DSS=False
Use Fixed Start Time=False
Fixed Start Date/Time=,
Is Critical Boundary=False
Critical Boundary Flow=
Boundary Location=Bald Eagle Cr.  ,Lock Haven      ,81454   ,        ,                ,                ,                ,                
Gate Name=Gate #1     
Gate DSS Path=
Gate Use DSS=False
Gate Time Interval=1HOUR
Gate Use Fixed Start Time=False
Gate Fixed Start Date/Time=,
Gate Openings= 200 
       2       3       4       4       4       4       4       4       4       4
       4       4       4       4       4       4       4       4       4       4
       4       4       4       4       4       4       4       4       4       4
       4       4       4       4       4       4       4       4       4       4
       4       4       4       4       4       4       4       4       4       4
       4       4       4       4       4       4       4       4       4       4
       4       4       4       4       4       4       4       4       4       4
       4       4       4       4       4       4       4       4       4       4
       4       4       4       4       4       4       4       4       4       4
       4       4       4       4       4       4       4       4       4       4
       4       4       4       4       4       4       4       4       4       4
       4       4       4       4       4       4       4       4       4       4
       4       4       4       4       4       4       4       4       4       4
       4       4       4       4       4       4       4       4       4       4
       4       4       4       4       4       4       4       4       4       4
       4       4       4       4       4       4       4       4       4       4
       4       4       4       4       4       4       4       4       4       4
       4       4       4       4       4       4       4       4       4       4
       4       4       4       4       4       4       4       4       4       4
       4       4       4       4       4       4       4       4       4       4
Boundary Location=                ,                ,        ,        ,                ,BaldEagleCr     ,                ,DSNormalDepth   
Friction Slope=0.0003
Boundary Location=                ,                ,        ,        ,                ,BaldEagleCr     ,                ,DS2NormalD      
Friction Slope=0.0003
