Geom Title=Single 2D Area with Bridges and Breaklin
Program Version=6.00
Viewing Rectangle= 1960041.35636708 , 2092643.59732271 , 375079.472213327 , 285497.899716316 

Storage Area=BaldEagleCr     ,2028421.8591768,334921.3955696
Storage Area Surface Line= 537 
2009315.70791633321138.385272103                
2008969.45200421320707.904948923                
2008705.31588184320392.943840647                
2007884.40169652319414.691682346                
2005545.21400638317276.005794221                
 2004141.7013923316106.411949152                
2003105.77541523 314869.98417008                
 2002504.2700092313834.058193019                
 2000833.4216591312163.209842921                
1999596.99388003 310960.19903085                
1997023.88742088309523.269449766                
1996556.04988285309556.686416768                
1995921.12750981308554.177406709                
1989805.82254845303541.632356414                
1984191.77209212299097.175745153                
1979981.23424988295889.146912965                
1979012.14220682294986.888803912                
1977675.46352674293817.294958843                
1975637.02853962292948.453816792                
 1973632.0105195292659.054083483                
 1971827.4943014292792.721951491                
1971159.15496136291823.629908434                
1970524.23258832290821.120898375                
 1969588.4379052 289578.11400543                
1965981.77456347291978.679798224                
1967082.28498712292892.972852497                
1968185.04489818294664.072103601                
1968886.80120523295900.499882673                
1970858.40225834296234.669552693                
1972562.66757544296969.842826736                
 1973531.7596185 297370.84643076                
1974400.60076055296936.425859734                
1975703.86247363297170.344628748                
1976472.45271467296802.757991726                
 1977007.1241867 296869.59192573                
1977207.62598871298072.602737801                
1977942.79926276 298573.85724283                
1978444.05376779300812.794031962                
1979379.72884384301213.797635985                
1981718.91653398302906.709983377                
 1985461.6168382307317.749627636                
1986898.54641928308788.096175722                
1988201.80813236310225.025756807                
1990307.07705348312798.132215958                
1991276.16909654313433.054588995                
1991777.42360157 314535.81450006                
1992412.34597461314836.567203078                
1993749.02465469 314869.98417008                
1995219.37120277317543.341530237                
1995921.12750981317576.758497239                
 1997458.3079919319682.027418362                
1998494.23396896320784.787329427                
2000098.24838506321753.879372484                
2002647.08165482323911.543579057                
2003026.95189074324254.688481212                
2003850.47946552324862.975894401                
2003887.91253711324947.200305459                
2003822.40466184325171.798734944                
2003728.82198289325443.188503905                
2003682.03064341325752.011344448                
 2003513.5818213326145.058596047                
2003260.90858813326425.806632904                
2002961.44401548326584.897187122                
2002297.00699492326959.227902931                
2001698.07784962327221.259403997                
2001529.62902751327361.633422426                
2000986.84948959328203.877532996                
2000930.69988222329008.688571985                
2000940.05815011329476.601966746                
 2000958.7746859329832.216146764                
 2001155.2983117330122.322451516                
2001379.89674119330262.696469945                
2001651.28651015330300.129541526                
2001978.82588648330187.830326783                
2002297.00699492330084.889379935                
2002736.84558599329579.542913593                
2003766.25505447329177.137394099                
2004131.22750238328568.849980909                
 2004674.0070403327614.306655597                
2004936.03854137327352.275154531                
2005684.69997299327155.751528731                
2006227.47951091327146.393260836                
2006948.06613884327239.975939788                
2008071.05828627327913.771228244                
 2009390.5740595329074.196447251                
2009643.24729267 329429.81062727                
 2009774.2630432329888.365754136                
2009792.97957899330141.038987307                
2009530.94807792330599.594114173                
 2008801.0031821331254.672866838                
2007930.68426784332265.365799522                
2007247.53071149333360.283143263                
2006938.70787095333706.539055386                
2006779.61731673333996.645360138                
2006751.54251304334342.901272261                
2006657.95983409334530.066630166                
2006105.82202827335054.129632298                
2005815.71572352335297.444597574                
2004627.21570083335877.657207078                
 2004299.6763245336027.389493401                
2003878.55426921336233.271387096                
2003485.50701761336551.452495534                
2003167.32590917336841.558800286                
2003055.02669443337262.680855571                
2003139.25110549337711.877714541                
 2003710.1054471337936.476144027                
2004224.81018133337973.909215608                
2004533.63302188337824.176929284                
2004702.08184399337777.385589808                
 2005272.9361856337777.385589808                
2006152.61336775337346.905266628                
2006667.31810199337103.590301352                
2007444.05433729336972.574550819                
2008192.71576891336542.094227639                
2010813.03077957334595.574505432                
2012020.24733805333903.062681186                
2012207.41269596333538.090233272                
 2012703.4008944332864.294944816                
2012946.71585968332536.755568484                
2013321.04657549332340.231942684                
2014013.55839974332284.082335313                
2014706.07022398332415.098085846                
2015370.50724454332939.161087978                
2022286.26721911337646.369839275                
 2025440.0034998339686.472240433                
2025561.66098244339892.354134128                
2025552.30271454340088.877759928                
2025421.28696401340369.625796785                
2025271.55467769340509.999815213                
2025028.23971241340697.165173117                
2024794.28301503 340809.46438786                
2024597.75938923340856.255727336                
2024532.25151397 341005.98801366                
2024616.47592502 341239.94471104                
2024784.92474714341417.751801049                
2024906.58222977341473.901408421                
2025018.88144452341427.110068945                
2025224.76333821341258.661246831                
2025496.15310717 341024.70454945                
2025898.55862667340753.314780489                
2026095.08225247340743.956512593                
2026450.69643249 340809.46438786                
2029342.40121211342624.968359533                
2030006.83823267343092.881754294                
2030034.91303636343223.897504827                
2029969.40516109343411.062862732                
2029800.95633898343654.377828007                
2029613.79098107343785.393578541                
2029286.25160474344047.425079607                
2029136.51931841344225.232169616                
2029005.50356788 344412.39752752                
2029033.57837157 344590.20461753                
 2029164.5941221344739.936903853                
2029248.81853316344796.086511225                
2029407.90908738344711.862100168                
2029679.29885634344627.637689111                
2029922.61382161344552.771545949                
2030109.77917952344618.279421215                
2030240.79493005344702.503832272                
  2030334.377609344702.503832272                
2030390.52721637344562.129813844                
2030437.31855585 344393.68099173                
2030577.69257428344150.366026454                
2030755.49966429343860.259721702                
2030970.73982588343813.468382226                
2031204.69652326343878.976257493                
2034470.73201869 346274.69283867                
2034536.23989396346424.425124993                
2034573.67296554346611.590482898                
2034498.80682238346770.681037116                
2034339.71626816346985.921198707                
2034171.26744604347201.161360297                
 2034068.3264992347313.460575039                
2033984.10208814347407.043253992                
2034021.53515972347538.059004525                
2034105.75957078347622.283415582                
2034199.34224973347631.641683477                
2034358.43280395 347547.41727242                
2034508.16509027347528.700736629                
2034760.83832344347556.775540315                
2034919.92887766347669.074755058                
2035125.81077136  347977.8975956                
2035331.69266505348361.586579304                
2035612.44070191348810.783438275                
2035715.38164876349175.755886189                
2035724.73991665349419.070851464                
2035865.11393508349596.877941474                
2036005.48795351349774.685031483                
2035968.05488193349961.850389387                
2035855.75566718350120.940943606                
 2035621.7989698350242.598426244                
2035443.99187979350326.822837301                
2035490.78321927350551.421266786                
2035612.44070191350747.944892586                
2035780.88952402350850.885839433                
2035949.33834614350860.244107329                
2036042.92102509350645.003945738                
2036155.22023983350551.421266786                
2036239.44465089350570.137802577                
2036482.75961616350579.496070472                
2036679.28324196350523.346463101                
2036913.23993934 350485.91339152                
2037334.36199463350691.795285215                
 2037577.6769599350869.602375224                
2037671.25963886 351150.35041208                
2038008.15728308351318.799234194                
2038663.23603575351169.066947871                
2039664.57070054351159.708679976                
2041133.81876009 351777.35436106                
2042790.23217754352516.657524783                
2043894.50778918 353031.36225902                
2044165.89755814 353050.07879481                
2044568.30307764352759.972490059                
2045672.57868927352376.283506354                
2046861.07871196352788.047293744                
2047955.99605571353134.303205867                
2048433.26771836353368.259903248                
2048470.70078994353630.291404314                
2048330.32677151 353873.60636959                
2048087.01180624354154.354406447                
2047740.75589412354229.220549608                
2047328.99210673354173.070942237                
2047029.52753408354276.011889085                
2046505.46453195354977.881981226                
2045560.27947453355473.870179673                
 2045232.7400982 355558.09459073                
 2045036.2164724355960.500110225                
2045382.47238452356540.712719728                
 2046000.1180656357130.283597127                
2046149.85035193357588.838723993                
2044689.96056027360939.098630483                
2044231.40543341361837.492348424                
2044034.88180761 362511.28763688                
 2044643.1692208362745.244334261                
2047460.00785726363007.275835327                
2048311.61023572361528.669507882                
2049406.52757947360068.779716227                
2050052.24806424359469.850570933                
2050286.20476162359423.059231457                
2050501.44492321359816.106483056                
2050669.89374532360115.571055703                
 2050903.8504427360096.854519913                
2050978.71658586359563.433249885                
 2051100.3740685359479.208838828                
2051334.33076588359020.653711962                
2051268.82289061358693.114335629                
 2050903.8504427358655.681264049                
  2050520.161459358618.248192468                
2050454.65358373358449.799370354                
2050679.25201322357495.256045041                
2050950.64178218357120.925329232                
2051268.82289061356858.893828166                
  2051502.779588356390.980433405                
2051699.30321379  356596.8623271                
2051895.82683959356886.968631852                
2052326.30716277356765.311149214                
2052288.87409119  356400.3387013                
2052335.66543067356016.649717596                
 2052476.0394491355735.901680739                
2052897.16150438355473.870179673                
2053524.16545336355455.153643883                
2054525.50011815355492.586715463                
 2055405.1773003 355558.09459073                
2056350.36235772355932.425306539                
2056883.78362775356437.771772881                
2056958.64977091356802.744220795                
2056893.14189564357074.133989756                
2056528.16944773357495.256045041                
2056153.83873192 357869.58676085                
2056041.53951718 358103.54345823                
2056359.72062562 358281.35054824                
2056799.55921669358412.366298773                
 2056968.0080388358075.468654545                
2057052.23244986 357869.58676085                
2057248.75607566357794.720617688                
2057903.83482833358842.846621953                
2058081.64191834358880.279693534                
2058427.89783046358627.606460363                
2058250.09074045358393.649762982                
2057988.05923938357981.885975593                
2058006.77577517357504.614312936                
2058193.94113308357336.165490822                
2058811.58681416357392.315098194                
2059887.78762211 357457.82297346                
2061169.87032376357663.704867155                
2062788.85066963357757.287546107                
2064108.36644286358403.008030878                
2065736.70505663359245.252141448                
 2066382.4255414359591.508053571                
2066494.72475614 359769.31514358                
2066504.08302404359919.047429903                
2066691.24838194360274.661609922                
2067383.76020619360471.185235722                
2067832.95706516360723.858468893                
2068094.98856622 360845.51595153                
2068319.58699571361163.697059968                
2068366.37833519361500.594704196                
2068188.57124518361893.641955795                
2067608.35863567 362296.04747529                
2066897.13027564362576.795512147                
2066232.69325507362745.244334261                
2065923.87041453362829.468745318                
 2065409.1656803363250.590800603                
2065240.71685818363465.830962193                
2066419.85861298364691.764056467                
2067234.02791986365000.586897009                
2068394.45313887365243.901862285                
2068955.94921258365505.933363351                
 2070107.0161637366694.433386044                
2070593.64609425  367368.2286745                
2070649.79570162367854.858605052                
2070612.36263004368341.488535603                
2071248.72484691368893.626341422                
2072530.80754856369436.405879344                
2073344.97685544369913.677542001                
2075123.04775554369979.185417267                
2075862.35091926369726.512184096                
2077116.35881722369539.346826192                
2078463.94939413369333.464932497                
2079624.37461314369744.216388517                
 2080288.8116337370324.428998021                
2080953.24865426370586.460499087                
2082544.15419645370745.551053306                
2083536.13059334370913.999875419                
2084247.35895338371007.582554372                
2084668.48100866370876.566803839                
 2084790.1384913370474.161284344                
2084687.19754445369454.110083765                
2084340.94163233368162.669114224                
2084415.80777549365392.621817238                
2083189.87468122364503.586367192                
2081767.41796114363942.090293479                
2081224.63842322363090.487915014                
2080606.99274214360835.145352265                
2079231.32736154359618.570525886                
2077509.40606882357634.617732099                
2076461.28006455357101.196462072                
2075366.36272081356895.314568377                
2074748.71703973355940.771243064                
2070958.61854216354593.180666152                
2068881.08306942353807.086162954                
2067496.05942093353348.531036088                
2066167.18537981352693.452283422                
2065034.83496449352197.464084975                
2064155.15778234351720.192422319                
2063228.68926071351093.188473339                
2062115.05538118350419.393184883                
 2061282.1695385349988.912861703                
2060131.10258739349595.865610104                
2058390.46475888349099.877411657                
2057426.56316567348697.471892162                
2057080.30725355348351.215980039                
2056818.27575248348107.901014763                
2056425.22850088348135.975818449                
2055966.67337402348004.960067916                
 2054824.9646908347275.015172089                
2052550.90559226346479.562400995                
2050407.86224425346021.007274129                
2048592.35827258345515.660807787                
2047675.24801885345160.046627768                
2046131.13381614344308.444249303                
2044006.80700392342970.211940286                
2042743.44083807341903.369400231                
2042500.12587279341613.263095479                
2042434.61799753341173.424504404                
2042500.12587279340817.810324385                
2042649.85815912340237.597714881                
2042790.23217754339835.192195387                
 2043070.9802144339526.369354845                
 2043258.1455723339311.129193255                
2043304.93691178339030.381156398                
2043407.87785863 338712.20004796                
2043482.74400179338609.259101113                
2043744.77550286 338712.20004796                
2044025.52353971338758.991387436                
2044222.04716551338749.633119541                
2044278.19677288338646.692172694                
2044193.97236183338515.676422161                
2043838.35818181338412.735475313                
2043538.89360916 338263.00318899                
2043482.74400179338113.270902666                
  2043464.027466337729.581918962                
2043538.89360916337495.625221581                
 2043651.1928239337373.967738944                
 2043857.0747176 337242.95198841                
2044156.53929025337186.802381039                
2044409.21252342337111.936237877                
 2044839.6928466 337008.99529103                
 2045223.3818303336990.278755239                
2045373.11411662336943.487415763                
2045644.50388559336803.113397335                
 2045822.3109756336662.739378907                
2045897.17711876336475.574021002                
2045887.81885086336250.975591517                
 2046000.1180656335960.869286765                
2046121.77554824335773.703928861                
2046252.79129878 335736.27085728                
2046383.80704931335811.137000441                
2046701.98815775 335951.51101887                
 2046992.0944625336110.601573089                
2047216.69289198336204.184252041                
2047366.42517831336269.692127307                
2047488.08266095336269.692127307                
2047619.09841148336250.975591517                
2047722.03935833336138.676376774                
 2047778.1889657335988.944090451                
2047722.03935833335829.853536232                
2047534.87400042335652.046446223                
2047506.79919674 335521.03069569                
 2047581.6653399335277.715730414                
2047815.62203728335053.117300928                
2048433.26771836334538.412566691                
2048545.56693311334529.054298796                
 2048751.4488268  334716.2196567                
2048985.40552418334819.160603548                
2049312.94490051334959.534621976                
2050155.18901108334603.920441958                
 2050716.6850848334444.829887739                
2051062.94099692334014.349564559                
2050988.07485376333808.467670864                
2050688.61028111333696.168456121                
2050248.77169004333527.719634007                
2049181.92914998333518.361366112                
2048461.34252205333471.570026636                
2047525.51573253333527.719634007                
2047104.39367724333789.751135073                
2046692.62988985334042.424368244                
2046477.38972826334004.991296664                
2046168.56688772333714.884991912                
2045841.02751139333527.719634007                
2045373.11411662333574.510973483                
2044764.82670344333593.227509274                
2044521.51173816333509.003098217                
 2043847.7164497333087.881042932                
2043791.56684233332835.207809761                
2043894.50778918332488.951897638                
2044100.38968287331609.274715487                
 2044240.7637013331553.125108115                
2044708.67709606 331525.05030443                
2045251.45663399331337.884946525                
2045607.07081401330851.255015974                
2045691.29522506330149.384923832                
2046187.28342351329550.455778538                
2047132.46848093329222.916402205                
2047516.15746463328970.243169034                
2047899.84644833328492.971506378                
2048096.37007413327968.908504245                
2047955.99605571327407.412430532                
2047497.44092884326958.215571561                
2046758.13776512326939.499035771                
2046187.28342351327089.231322094                
2045972.04326192327238.963608418                
2045747.44483243327772.384878446                
2045653.86215348328090.565986883                
2045335.68104504328633.345524806                
2045017.49993661329026.392776405                
2044811.61804291329138.691991148                
2044624.45268501329559.814046433                
2044549.58654185329831.203815394                
 2044437.2873271329887.353422766                
2044203.33062972329896.711690661                
2043220.71250072329831.203815394                
2042808.94871333329728.262868547                
2042462.69280121329849.920351185                
2042266.16917541329924.786494347                
2042144.51169277330093.235316461                
2042079.00381751330430.132960689                
2042060.28728172330972.912498612                
2042041.57074593331356.601482316                
2041985.42113855331440.825893373                
 2041891.8384596331478.258964954                
2041751.46444117331478.258964954                
2041657.88176222331412.751089687                
2041218.04317115331057.136909669                
2040796.92111586 330701.52272965                
2040113.76755951330430.132960689                
2039711.36204002330233.609334889                
2039140.50769841330121.310120146                
2038831.68485786330233.609334889                
2038625.80296417330533.073907536                
 2038569.6533568330832.538480183                
2038719.38564312331075.853445459                
2039224.73210946331431.467625477                
2039627.13762896331571.841643906                
2040319.64945321332067.829842353                
2041021.51954535332526.384969218                
2041152.53529588332713.550327123                
2041161.89356377333144.030650303                
2041274.19277852333499.644830322                
2041629.80695854333958.199957187                
2042312.96051489334585.203906167                
2042724.72430228335783.062196756                
 2042874.4565886336325.841734679                
2042893.17312439337205.518916829                
2042865.09832071337448.833882105                
2042790.23217754337504.983489477                
2042715.36603438337504.983489477                
2042603.06681964337476.908685791                
2042397.18492594337411.400810524                
 2042294.2439791337411.400810524                
2042219.37783594337476.908685791                
2042210.01956804337542.416561057                
2042378.46839015337664.074043695                
2042443.97626542337767.014990543                
2042621.78335543337963.538616342                
2042659.21642701338057.121295295                
2042659.21642701338150.703974247                
2042443.97626542338590.542565322                
2042350.39358647338749.633119541                
2042256.81090752339301.770925359                
2042228.73610383339414.070140102                
2042013.49594224339722.892980644                
2041816.97231644339835.192195387                
2041423.92506484340125.298500139                
2040881.14552692 340377.97173331                
2040366.44079268340565.137091214                
2040010.82661266340565.137091214                
2039449.33053895340331.180393834                
2038784.89351839339994.282749606                
2034292.92492868 337008.99529103                
2031223.41305905335025.042497243                
 2030147.2122511334332.530672996                
 2029164.5941221 333855.25901034                
2024429.31056712330654.731390174                
2020873.16876693328137.357326359                
2018037.61359468326069.180121515                
2017101.78680516325329.876957793                
2015426.65685191324291.109221423                
2014425.32218713 323729.61314771                
2013966.76706026323626.672200862                
2013386.55445076  323551.8060577                
2012731.47569809323402.073771377                
2011823.72371225323093.250930835                
2010719.44810062322410.097374483                
2009849.12918636 321633.36113918                
2009371.85752371321193.522548104                
2009315.70791633321138.385272103                
Storage Area Type= 1 
Storage Area Area=
Storage Area Min Elev=
Storage Area Is2D=-1
Storage Area Point Generation Data=,,250,250
Storage Area 2D Points= 24718 
        2083000.         370750.        2083250.         370750.
        2083500.         370750.        2083750.         370750.
        2084000.         370750.        2084250.         370750.
        2084500.         370750.        2081000.         370500.
        2081250.         370500.        2081500.         370500.
        2081750.         370500.        2082000.         370500.
        2082250.         370500.        2082500.         370500.
        2082750.         370500.        2083000.         370500.
        2083250.         370500.        2083500.         370500.
        2083750.         370500.        2084000.         370500.
        2084250.         370500.        2084500.         370500.
        2080500.         370250.        2080750.         370250.
        2081000.         370250.        2081250.         370250.
        2081500.         370250.        2081750.         370250.
        2082000.         370250.        2082250.         370250.
        2082500.         370250.        2082750.         370250.
        2083000.         370250.        2083250.         370250.
        2083500.         370250.        2083750.         370250.
        2084000.         370250.        2084250.         370250.
        2084500.         370250.        2080250.         370000.
        2080500.         370000.        2080750.         370000.
        2081000.         370000.        2081250.         370000.
        2081500.         370000.        2081750.         370000.
        2082000.         370000.        2082250.         370000.
        2082500.         370000.        2082750.         370000.
        2083000.         370000.        2083250.         370000.
        2083500.         370000.        2083750.         370000.
        2084000.         370000.        2084250.         370000.
        2084500.         370000.        2073250.         369750.
        2073500.         369750.        2073750.         369750.
        2074000.         369750.        2074250.         369750.
        2074500.         369750.        2074750.         369750.
        2075000.         369750.        2075250.         369750.
        2075500.         369750.        2079750.         369750.
        2080000.         369750.        2080250.         369750.
        2080500.         369750.        2080750.         369750.
        2081000.         369750.        2081250.         369750.
        2081500.         369750.        2081750.         369750.
        2082000.         369750.        2082250.         369750.
        2082500.         369750.        2082750.         369750.
        2083000.         369750.        2083250.         369750.