Geom Title=Geometry Without Dam
Program Version=5.07
Viewing Rectangle= 96468.58 , 135893.64 , 125543.86 , 107287.31 

River Reach=Adorn           ,Upper           
Reach XY= 22 
      135364.197     107696.9149     134878.8058     108043.6205
     133561.3178     108667.6939     132659.8765     108598.3528
     130787.6527     109014.4029      130371.606     109569.1352
     128222.0178     112065.4324     126419.1352      112758.847
     124546.9149     113105.5559     121149.1764     114145.6795
     117820.7824     116641.9766     116433.9499     117404.7323
     114700.4118     117890.1235     113313.5793     118167.4914
     109846.5031     118999.5882      107766.256     119831.6884
     107003.4969     120039.7117     106171.4001      120178.394
     101733.5381     121565.2265     99167.89982     122813.3734
     98127.77628     124130.8648     97156.99723     125101.6472
Rch Text X Y=125812.3970575,112048.097975
Reverse River Text= 0 

Type RM Length L Ch R = 1 ,42000   ,2000,2000,2000
XS GIS Cut Line=2
       135197.51        107466.3       135507.12       107898.28
Node Last Edited Time=Apr/02/2020 17:31:15
#Sta/Elev= 37 
       0  648.02       5  634.14      10  619.13      25   608.1      35  598.12
      55  591.08      75  587.02     100  583.07     125  583.12     155  583.14
     180  580.08     210  578.15     245  577.01     250  575.17     252  567.32
     254  566.11  255.27  565.81  257.19  564.97  260.64  563.77  263.46  564.04
  267.31  564.15  269.41  565.61  270.37  566.94     272  568.13     274  575.07
     279  578.09     309  579.15     329  579.17     354  582.09     389  586.07
     424  589.08     444  592.11     459  600.15     469  611.13     474  624.18
     479  638.11     489  649.11
#Mann= 3 , 0 , 0 
       0     .08       0     250    .054       0     274     .08       0
Bank Sta=250,274
XS Rating Curve= 0 ,0
XS HTab Starting El and Incr=563.92,0.3, 100 
XS HTab Horizontal Distribution= 5 , 5 , 5 
Exp/Cntr=0.3,0.1

Type RM Length L Ch R = 1 ,40000   ,2000,2000,2000
XS GIS Cut Line=2
       133425.56       108322.11       133478.01       108949.05
Node Last Edited Time=Apr/02/2020 17:31:15
#Sta/Elev= 37 
       0  646.21       6  632.17      12  617.22      30  606.27      42   596.2
      66  589.22      90  585.17     120  581.13     150  581.09     186  581.23
     216  578.23     252  576.14     294  575.21     300  573.25     302   565.2
     304   564.1  305.27   564.1  307.19  562.88  310.37   561.5  313.29  561.67
  317.31  562.47  319.41   563.5  320.37  565.06     322  566.35     324  573.19
     330  576.08     366  577.09     390  577.07     420  580.12     462  584.26
     504  587.09     528  590.12     546  598.12     558  609.26     564  622.16
     570  636.22     582  647.09
#Mann= 3 , 0 , 0 
       0     .08       0     300    .054       0     324     .08       0
Bank Sta=300,324
XS Rating Curve= 0 ,0
XS HTab Starting El and Incr=561.65,0.3, 100 
XS HTab Horizontal Distribution= 5 , 5 , 5 
Exp/Cntr=0.3,0.1

Type RM Length L Ch R = 1 ,38000   ,2000,2000,2000
XS GIS Cut Line=2
       131240.02       108496.95       131412.37       109248.78
Node Last Edited Time=Apr/02/2020 17:31:15
#Sta/Elev= 37 
       0  643.94       8  629.91      16  614.97      40  603.89      56  593.92
      88  586.91     120   582.9     160  578.91     200  578.88     248  578.93
     288  575.89     336  573.89     392  572.84     400  571.14     402  563.12
     404  561.85  405.27  561.68  407.19   560.5  410.66  561.14  413.42  559.11
  417.31  560.14  419.41  561.29  420.37   562.8     422  564.05     424  570.99
     432  573.84     480  574.85     512  574.89     552  577.89     608  581.81
     664  584.89     696  587.89     720  595.85     736   606.9     744  619.86
     752  633.94     768  644.91
#Mann= 3 , 0 , 0 
       0     .08       0     400    .054       0     424     .08       0
Bank Sta=400,424
XS Rating Curve= 0 ,0
XS HTab Starting El and Incr=559.26,0.3, 100 
XS HTab Horizontal Distribution= 5 , 5 , 5 
Exp/Cntr=0.3,0.1

Type RM Length L Ch R = 1 ,36000   ,2000,2000,2000
XS GIS Cut Line=2
       129456.62       109988.12       130043.59       110487.67
Node Last Edited Time=Apr/02/2020 17:31:15
#Sta/Elev= 37 
       0   642.1       8  628.06      16  613.01      40  602.03      56  592.09
      88  585.02     120  581.01     160  577.05     200  577.07     248     577
     288  574.05     336  572.02     392  571.05     400  569.09     402  561.18
     404  560.07  405.27  559.89  407.19  558.61  410.66  559.28  413.42  557.17
  417.31  558.39  419.41  559.51  420.37  561.07     422  562.13     424  569.07
     432  572.07     480  573.08     512  573.05     552     576     608  580.07
     664  583.03     696  586.06     720  594.02     736  605.02     744  618.08
     752  632.01     768  643.02
#Mann= 3 , 0 , 0 
       0     .08       0     400    .054       0     424     .08       0
Bank Sta=400,424
XS Rating Curve= 0 ,0
XS HTab Starting El and Incr=557.32,0.3, 100 
XS HTab Horizontal Distribution= 5 , 5 , 5 
Exp/Cntr=0.3,0.1

Type RM Length L Ch R = 1 ,34000   ,2000,2000,2000
XS GIS Cut Line=2
       128050.38       111544.22       128632.36       112178.66
Node Last Edited Time=Apr/02/2020 17:31:15
#Sta/Elev= 37 
       0  640.05       9  626.06      18  611.03      45  600.06      63  590.04
      99  583.09     135  579.05     180     575     225     575     279  575.09
     324  572.05     378  570.08     441  569.02     450  567.21     452  559.25
     454  558.22  455.27  557.88  457.19   556.8  460.66  557.26  463.42  555.35
  467.31  556.42  469.41  557.41  470.37  558.97     472  560.15     474  567.11
     483     570     537  571.02     573  571.08     618  574.09     681   578.1
     744  581.03     780  584.06     807  592.08     825  603.03     834  616.01
     843  630.04     861  641.07
#Mann= 3 , 0 , 0 
       0     .08       0     450    .054       0     474     .08       0
Bank Sta=450,474
XS Rating Curve= 0 ,0
XS HTab Starting El and Incr=555.5,0.3, 100 
XS HTab Horizontal Distribution= 5 , 5 , 5 
Exp/Cntr=0.3,0.1

Type RM Length L Ch R = 1 ,32000   ,2000,2000,2000
XS GIS Cut Line=2
       126274.47       112263.58       126529.24       113185.25
Node Last Edited Time=Apr/02/2020 17:31:15
#Sta/Elev= 37 
       0  638.07      10     624      20  609.09      50   598.1      70  588.03
     110     581     150  577.01     200  573.07     250  573.08     310  573.05
     360  570.08     420  568.08     490  567.05     500  565.03     502  557.26
     504  556.06  505.27  555.97  507.19  554.67  510.66  555.32  513.42  553.38
  517.31  554.28  519.41  555.34  520.37  557.14     522   558.1     524  565.29
     534  568.06     594  569.03     634  569.06     684     572     754  576.08
     824  579.06     864  582.09     894   590.1     914  601.02     924   614.1
     934  628.09     954  639.04
#Mann= 3 , 0 , 0 
       0     .08       0     500    .054       0     524     .08       0
Bank Sta=500,524
XS Rating Curve= 0 ,0
XS HTab Starting El and Incr=553.53,0.3, 100 
XS HTab Horizontal Distribution= 5 , 5 , 5 
Exp/Cntr=0.3,0.1

Type RM Length L Ch R = 1 ,30000   ,2000,2000,2000
XS GIS Cut Line=2
       124141.38       112623.26       124423.63       113644.84
Node Last Edited Time=Apr/02/2020 17:31:15
#Sta/Elev= 37 
       0  636.02      11  622.02      22  607.03      55   596.1      77  586.06
     121  579.04     165  575.07     220  571.04     275     571     341     571
     396  568.07     462  566.06     539  565.02     550  563.21     552  555.07
     554  554.14  555.27  553.77  557.19  552.88  560.66  553.28  563.42  551.17
  567.31   552.3  569.41  553.45  570.37  555.01     572  556.21     574  563.17
     585  566.09     651  567.07     695  567.07     750  570.02     827  574.03
     904     577     948  580.01     981  588.09    1003  599.09    1014   612.1
    1025     626    1047  637.03
#Mann= 3 , 0 , 0 
       0     .08       0     550    .054       0     574     .08       0
Bank Sta=550,574
XS Rating Curve= 0 ,0
XS HTab Starting El and Incr=551.32,0.3, 100 
XS HTab Horizontal Distribution= 5 , 5 , 5 
Exp/Cntr=0.3,0.1

Type RM Length L Ch R = 1 ,28000   ,2000,2000,2000
XS GIS Cut Line=2
       122045.76       113210.23       122387.95       114329.23
Node Last Edited Time=Apr/02/2020 17:31:15
#Sta/Elev= 37 
       0  634.03      12  620.04      24  605.09      60  594.04      84  584.05
     132  577.05     180  573.09     240  569.04     300  569.06     372  569.07
     432  566.08     504  564.02     588  563.07     600   561.2     602  553.01
     604  552.11  605.27   551.9  607.19  550.67  610.66  551.35  613.42  549.27
  617.31  550.29  619.41  551.36  620.37     553     622   554.1     624  561.24
     636  564.03     708  565.09     756  565.08     816  568.02     900  572.09
     984  575.02    1032  578.05    1068  586.04    1092  597.02    1104  610.05
    1116  624.03    1140  635.04
#Mann= 3 , 0 , 0 
       0     .08       0     600    .054       0     624     .08       0
Bank Sta=600,624
XS Rating Curve= 0 ,0
XS HTab Starting El and Incr=549.42,0.3, 100 
XS HTab Horizontal Distribution= 5 , 5 , 5 
Exp/Cntr=0.3,0.1

Type RM Length L Ch R = 1 ,26000   ,2000,2000,2000
XS GIS Cut Line=2
       119922.66       114216.83       120681.98       115225.92
Node Last Edited Time=Apr/02/2020 17:31:15
#Sta/Elev= 37 
       0  632.02      13  618.03      26  603.03      65  592.05      91  582.02
     143     575     195  571.03     260  567.07     325  567.03     403  567.09
     468  564.05     546  562.05     637  561.03     650  559.23     652  551.29
     654  550.29  655.27  549.84  657.19  548.82  660.66  549.29  663.42  547.19
  667.31  548.38  669.41  549.47  670.37  551.13     672  552.18     674  559.03
     687  562.05     765  563.05     817  563.04     882  566.01     973  570.04
    1064  573.08    1116  576.09    1155  584.06    1181  595.07    1194  608.07
    1207  622.09    1233  633.04
#Mann= 3 , 0 , 0 
       0     .08       0     650    .054       0     674     .08       0
Bank Sta=650,674
XS Rating Curve= 0 ,0
XS HTab Starting El and Incr=547.34,0.3, 100 
XS HTab Horizontal Distribution= 5 , 5 , 5 
Exp/Cntr=0.3,0.1

Type RM Length L Ch R = 1 ,24000   ,2000,2000,2000
XS GIS Cut Line=2
       118163.59       115475.94       118963.95       116552.17
Node Last Edited Time=Apr/02/2020 17:31:15
#Sta/Elev= 37 
       0  630.04      14   616.1      28  601.04      70  590.04      98  580.06
     154  573.02     210  569.04     280  565.04     350  565.02     434  565.04
     504  562.02     588  560.01     686  559.04     700  557.19     702  549.12
     704  548.24  705.27  547.95  707.19  546.78  710.66  547.09  713.42  545.16
  717.31  546.28  719.41  547.36  720.37  548.92     722  550.16     724  557.21
     738  560.05     822  561.08     878   561.1     948  564.04    1046  568.09
    1144  571.01    1200  574.04    1242  582.01    1270  593.01    1284  606.07
    1298   620.1    1326  631.03
#Mann= 3 , 0 , 0 
       0     .08       0     700    .054       0     724     .08       0
Bank Sta=700,724
XS Rating Curve= 0 ,0
XS HTab Starting El and Incr=545.31,0.3, 100 
XS HTab Horizontal Distribution= 5 , 5 , 5 
Exp/Cntr=0.3,0.1

Type RM Length L Ch R = 1 ,22000   ,2000,2000,2000
XS GIS Cut Line=2
       116436.86       116497.67       117073.74        117808.9
Node Last Edited Time=Apr/02/2020 17:31:15
#Sta/Elev= 37 
       0  628.09      15  614.06      30  599.06      75  588.06     105  578.08
     165   571.1     225  567.06     300   563.1     375  563.04     465  563.09
     540  560.06     630  558.05     735  557.05     750   555.3     752  547.17
     754  546.26  755.27  545.98  757.19  544.85  760.66  545.22  763.42   543.2
  767.31  544.15  769.41  545.51  770.37  547.15     772  548.06     774  555.06
     789  558.01     879  559.02     939  559.09    1014  562.01    1119  566.02
    1224  569.05    1284  572.07    1329  580.04    1359  591.01    1374  604.01
    1389     618    1419  629.02
#Mann= 3 , 0 , 0 
       0     .08       0     750    .054       0     774     .08       0
Bank Sta=750,774
XS Rating Curve= 0 ,0
XS HTab Starting El and Incr=543.35,0.3, 100 
XS HTab Horizontal Distribution= 5 , 5 , 5 
Exp/Cntr=0.3,0.1

Type RM Length L Ch R = 1 ,20000   ,2000,2000,2000
XS GIS Cut Line=2
       114533.04       117066.44       114904.27       118585.41
Node Last Edited Time=Apr/02/2020 17:31:15
#Sta/Elev= 37 
       0  626.08      16  612.05      32  597.02      80  586.04     112  576.08
     176  569.02     240  565.01     320  561.04     400  561.05     496  561.01
     576  558.03     672  556.01     784  555.08     800  553.14     802  545.07
     804  544.28  805.27  544.03  807.19   542.7  810.66  543.22  813.42  541.17
  817.31  542.26  819.41  543.57  820.37  545.09     822  546.28     824  553.26
     840  556.09     936  557.03    1000  557.05    1080     560    1192  564.06
    1304   567.1    1368  570.08    1416     578    1448  589.01    1464  602.04
    1480  616.05    1512  627.04
#Mann= 3 , 0 , 0 
       0     .08       0     800    .054       0     824     .08       0
Bank Sta=800,824
XS Rating Curve= 0 ,0
XS HTab Starting El and Incr=541.32,0.3, 100 
XS HTab Horizontal Distribution= 5 , 5 , 5 
Exp/Cntr=0.3,0.1

Type RM Length L Ch R = 1 ,18000   ,2000,2000,2000
XS GIS Cut Line=2
       112421.63       117484.42       112791.09        119046.6
Node Last Edited Time=Apr/02/2020 17:31:15
#Sta/Elev= 37 
       0  624.09      17  610.05      34  595.05      85  584.07     119  574.08
     187  567.07     255  563.07     340  559.08     425  559.06     527  559.06
     612  556.09     714  554.07     833  553.06     850  551.12     852     543
     854  542.13  855.27  541.96  857.19  540.86  860.66  541.07  863.42  539.11
  867.31  540.42  869.41  541.51  870.37  543.09     872  544.27     874  551.12
     891  554.07     993  555.01    1061     555    1146  558.09    1265  562.04
    1384   565.1    1452  568.07    1503  576.02    1537  587.03    1554   600.1
    1571  614.09    1605  625.07
#Mann= 3 , 0 , 0 
       0     .08       0     850    .054       0     874     .08       0
Bank Sta=850,874
XS Rating Curve= 0 ,0
XS HTab Starting El and Incr=539.26,0.3, 100 
XS HTab Horizontal Distribution= 5 , 5 , 5 
Exp/Cntr=0.3,0.1

Type RM Length L Ch R = 1 ,16000   ,2000,2000,2000
XS GIS Cut Line=2
       110331.92       118076.15       110674.85        119486.8
Node Last Edited Time=Apr/02/2020 17:31:15
#Sta/Elev= 37 
       0  622.08      15  608.04      30   593.1      75  582.01     105  572.01
     165  565.04     225  561.03     300  557.07     375  557.09     465  557.02
     540  554.05     630  552.06     735  551.03     750   549.1     752   541.2
     754  540.22  755.27  540.01  757.19  538.88  760.66  539.15  763.42  537.23
  767.31  538.33  769.41  539.38  770.37  541.01     772  542.12     774  549.01
     789  552.01     879  553.04     939  553.08    1014  556.04    1119  560.01
    1224  563.02    1284  566.03    1329  574.03    1359     585    1374  598.01
    1389  612.05    1419  623.01
#Mann= 3 , 0 , 0 
       0     .08       0     750    .054       0     774     .08       0
Bank Sta=750,774
XS Rating Curve= 0 ,0
XS HTab Starting El and Incr=537.38,0.3, 100 
XS HTab Horizontal Distribution= 5 , 5 , 5 
Exp/Cntr=0.3,0.1

Type RM Length L Ch R = 1 ,14000   ,2000,2000,2000
XS GIS Cut Line=2
       108233.57       118914.01        108704.4        120094.8
Node Last Edited Time=Apr/02/2020 17:31:15
#Sta/Elev= 37 
       0  620.16      13  606.02      26  591.03      65   580.2      91  570.21
     143  563.21     195  559.13     260  555.19     325   555.2     403  555.01
     468  552.19     546  550.05     637  549.22     650  547.27     652  539.08
     654  538.27  655.27  537.94  657.19  536.89  660.66  537.35  663.42  535.24
  667.31  536.17  669.41  537.44  670.37  538.88     672  540.05     674  547.15
     687  550.29     765  551.19     817  551.18     882  554.19     973  558.18
    1064  561.22    1116  564.13    1155  572.18    1181  583.11    1194  596.03
    1207  610.22    1233  621.06
#Mann= 3 , 0 , 0 
       0     .08       0     650    .054       0     674     .08       0
Bank Sta=650,674
XS Rating Curve= 0 ,0
XS HTab Starting El and Incr=535.39,0.3, 100 
XS HTab Horizontal Distribution= 5 , 5 , 5 
Exp/Cntr=0.3,0.1

Type RM Length L Ch R = 1 ,12000   ,4000,4000,4000
XS GIS Cut Line=2
       106298.33       119568.36       106513.36       120613.83
Node Last Edited Time=Apr/06/2020 16:16:23
#Sta/Elev= 37 
       0  618.16      11  604.26      22  589.06      55  578.06      77  568.01
     121  561.17     165  557.12     220  553.01     275  553.15     341  553.17
     396  550.25     462  548.04     539  547.29     550  545.09     552  537.17
     554  536.24  555.27  535.91  557.19  534.68  560.66  535.18  563.42   533.1
  567.31  534.15  569.41   535.6  570.37  537.15     572  538.28     574  545.25
     585  548.08     651  549.08     695   549.2     750  552.27     827  556.29
     904  559.23     948  562.27     981  570.06    1003  581.13    1014  594.23
    1025  608.23    1047  619.12
#Mann= 3 , 0 , 0 
       0     .08       0     550    .054       0     574     .08       0
Bank Sta=550,574
XS Rating Curve= 0 ,0
XS HTab Starting El and Incr=533.25,0.3, 100 
XS HTab Horizontal Distribution= 5 , 5 , 5 
Exp/Cntr=0.3,0.1

Type RM Length L Ch R = 1 ,8000    ,2000,2000,2000
XS GIS Cut Line=2
       104188.85       120252.36       104478.03       121175.49
Node Last Edited Time=Apr/02/2020 17:31:15
#Sta/Elev= 37 
       0  616.06      10  602.15      20  587.17      50  576.27      70  566.15
     110  559.12     150  555.23     200  551.03     250  551.25     310   551.3
     360  548.11     420  546.04     490     545     500  543.13     502  535.22
     504  534.19  505.27  533.83  507.19   532.7  510.66  533.21  513.42  531.31
  517.31  532.32  519.41  533.34  520.37  534.96     522  536.04     524  543.24
     534  546.14     594  547.16     634   547.1     684  550.22     754  554.13
     824  557.15     864  560.21     894  568.23     914  579.25     924  592.06
     934  606.09     954  617.12
#Mann= 3 , 0 , 0 
       0     .08       0     500    .054       0     524     .08       0
Bank Sta=500,524
XS Rating Curve= 0 ,0
XS HTab Starting El and Incr=531.46,0.3, 100 
XS HTab Horizontal Distribution= 5 , 5 , 5 
Exp/Cntr=0.3,0.1

Type RM Length L Ch R = 1 ,6000    ,2000,2000,2000
XS GIS Cut Line=2
       102144.25       120943.78       102400.06       121764.96
Node Last Edited Time=Apr/02/2020 17:31:15
#Sta/Elev= 37 
       0  614.05       9  600.29      18  585.19      45  574.21      63  564.23
      99  557.26     135     553     180   549.1     225  549.01     279   549.2
     324  546.15     378  544.01     441   543.2     450   541.1     452  533.26
     454  532.29  455.27  531.77  457.19  530.86  460.66  531.31  463.42  529.19
  467.31   530.4  469.41  531.44  470.37  532.88     472  534.16     474  541.22
     483  544.12     537   545.1     573  545.18     618  548.29     681   552.1
     744  555.25     780  558.19     807  566.26     825  577.27     834  590.22
     843  604.11     861  615.05
#Mann= 3 , 0 , 0 
       0     .08       0     450    .054       0     474     .08       0
Bank Sta=450,474
XS Rating Curve= 0 ,0
XS HTab Starting El and Incr=529.34,0.3, 100 
XS HTab Horizontal Distribution= 5 , 5 , 5 
Exp/Cntr=0.3,0.1

Type RM Length L Ch R = 1 ,4000    ,2000,2000,2000
XS GIS Cut Line=2
       100125.61       121876.18       100470.39        122591.7
Node Last Edited Time=Apr/02/2020 17:31:15
#Sta/Elev= 37 
       0  612.01       8  598.21      16  583.28      40  572.29      56  562.08
      88  555.15     120  551.02     160   547.2     200  547.08     248   547.1
     288  544.24     336  542.01     392  541.14     400  539.25   402.1  531.16
   404.2  530.17 405.534  529.96 407.549   528.7 411.193  529.19 414.091  527.36
 418.176  528.19  420.38  529.41 421.389  530.88   423.1  532.05   425.2  539.01
   433.2  542.02   481.2  543.13   513.2  543.09   553.2  546.01   609.2  550.27
   665.2  553.02   697.2  556.12   721.2   564.2   737.2  575.26   745.2  588.29
   753.2  602.05   769.2  613.16
#Mann= 3 , 0 , 0 
       0     .08       0     400    .054       0   425.2     .08       0
Bank Sta=400,425.2
XS Rating Curve= 0 ,0
XS HTab Starting El and Incr=527.51,0.3, 100 
XS HTab Horizontal Distribution= 5 , 5 , 5 
Exp/Cntr=0.3,0.1

Type RM Length L Ch R = 1 ,2000    ,2000,2000,2000
XS GIS Cut Line=2
        98283.06        123251.6        98896.62       123737.26
Node Last Edited Time=Apr/02/2020 17:31:15
#Sta/Elev= 37 
       0  610.04       8  596.21      16   581.1      40  570.24      56   560.2
      88  553.14     120  549.09     160  545.24     200  545.23     248  545.08
     288  542.23     336  540.17     392  539.13     400   537.1  401.68  529.01
  403.36  528.25 404.427  527.95  406.04  526.84 408.954  527.16 411.273  525.38
  414.54  526.35 416.304  527.53 417.111  528.95  418.48  530.12  420.16  537.18
  428.16  540.02  476.16  541.09  508.16  541.09  548.16  544.16  604.16  548.08
  660.16  551.18  692.16  554.01  716.16  562.18  732.16  573.22  740.16  586.07
  748.16  600.02  764.16   611.1
#Mann= 3 , 0 , 0 
       0     .08       0     400    .054       0  420.16     .08       0
Bank Sta=400,420.16
XS Rating Curve= 0 ,0
XS HTab Starting El and Incr=525.53,0.3, 100 
XS HTab Horizontal Distribution= 5 , 5 , 5 
Exp/Cntr=0.3,0.1

Type RM Length L Ch R = 1 ,0       ,2000,2000,2000
XS GIS Cut Line=2
         96855.1       124803.97        97420.92       125364.87
Node Last Edited Time=Apr/02/2020 17:31:15
#Sta/Elev= 37 
       0  608.16       8  594.21      16  579.07      40  568.15      56  558.22
      88  551.16     120  547.21     160  543.27     200     543     248  543.03
     288  540.15     336  538.07     392   537.2     400   535.1     402  527.17
     404  526.05  405.27  525.76  407.19  524.87  410.66   525.1  413.42  523.37
  417.31  524.32  419.41  525.39  420.37  527.15     422  528.19     424  535.02
     432  538.23     480  539.05     512  539.29     552  542.26     608  546.16
     664  549.16     696  552.03     720  560.06     736  571.03     744  584.08
     752  598.23     768  609.03
#Mann= 3 , 0 , 0 
       0     .08       0     400    .054       0     424     .08       0
Bank Sta=400,424
XS Rating Curve= 0 ,0
XS HTab Starting El and Incr=523.52,0.3, 100 
XS HTab Horizontal Distribution= 5 , 5 , 5 
Exp/Cntr=0.3,0.1

Stream Node=Adorn           ,Upper           , 0 , 0 ,Upstream end                                                    

Stream Node=Adorn           ,Upper           , 0 , 1 ,Downstream end                                                  

LCMann Time=Dec/30/1899 00:00:00
LCMann Region Time=Dec/30/1899 00:00:00
LCMann Table=0
Chan Stop Cuts=-1 



Use User Specified Reach Order=0
GIS Ratio Cuts To Invert=-1
GIS Limit At Bridges=0
Composite Channel Slope=5
