Geom Title=2D_Flume_0p05m_With_Walls_V2
Program Version=5.05
Viewing Rectangle=-1.18 , 17.28 , 2.03 ,-1.03 

Storage Area=2DArea          ,8.2386935,0.417706
Storage Area Surface Line= 9 
              0.              0.                
           16.49              0.                
           16.49              1.                
           10.81              1.                
            9.84             0.5                
            4.88             0.5                
            3.93              1.                
              0.              1.                
              0.              0.                
Storage Area Type= 0 
Storage Area Area=
Storage Area Min Elev=
Storage Area Is2D=-1
Storage Area Point Generation Data=0.04,0,0.05,0.025
Storage Area 2D Points= 10783 
0.064999999478460.987499999813740.115000000223520.98749999981374
0.165000000968580.987499999813740.215000001713630.98749999981374
0.265000002458690.987499999813740.315000003203750.98749999981374
0.365000003948810.987499999813740.415000004693870.98749999981374
0.465000005438920.987499999813740.515000006183980.98749999981374
0.565000006929040.98749999981374 0.61500000767410.98749999981374
0.665000008419160.987499999813740.715000009164210.98749999981374
0.765000009909270.987499999813740.815000010654330.98749999981374
0.865000011399390.987499999813740.915000012144450.98749999981374
 0.96500001288950.987499999813741.015000013634560.98749999981374
1.065000014379620.987499999813741.115000015124680.98749999981374
1.165000015869740.987499999813741.215000016614790.98749999981374
1.265000017359850.987499999813741.315000018104910.98749999981374
1.365000018849970.987499999813741.415000019595030.98749999981374
1.465000020340090.987499999813741.515000021085140.98749999981374
 1.56500002183020.987499999813741.615000022575260.98749999981374
1.665000023320320.987499999813741.715000024065380.98749999981374
1.765000024810430.987499999813741.815000025555490.98749999981374
1.865000026300550.987499999813741.915000027045610.98749999981374
1.965000027790670.987499999813742.015000028535720.98749999981374
2.065000029280780.987499999813742.115000030025840.98749999981374
 2.16500003077090.987499999813742.215000031515960.98749999981374
2.265000032261010.987499999813742.315000033006070.98749999981374
2.365000033751130.987499999813742.415000034496190.98749999981374
2.465000035241250.98749999981374 2.51500003598630.98749999981374
2.565000036731360.987499999813742.615000037476420.98749999981374
2.665000038221480.987499999813742.715000038966540.98749999981374
2.765000039711590.987499999813742.815000040456650.98749999981374
2.865000041201710.987499999813742.915000041946770.98749999981374
2.965000042691830.987499999813743.015000043436880.98749999981374
3.065000044181940.98749999981374  3.1150000449270.98749999981374
3.165000045672060.987499999813743.215000046417120.98749999981374
3.265000047162180.987499999813743.315000047907230.98749999981374
3.365000048652290.987499999813743.415000049397350.98749999981374
3.465000050142410.987499999813743.515000050887470.98749999981374
3.565000051632520.987499999813743.615000052377580.98749999981374
3.665000053122640.98749999981374 3.71500005386770.98749999981374
3.765000054612760.987499999813743.815000055357810.98749999981374
3.865000056102870.987499999813743.915000056847930.98749999981374
10.81500015966590.98749999981374 10.8650001604110.98749999981374
10.91500016115610.9874999998137410.96500016190110.98749999981374
11.01500016264620.9874999998137411.06500016339120.98749999981374
11.11500016413630.9874999998137411.16500016488130.98749999981374
11.21500016562640.9874999998137411.26500016637150.98749999981374
11.31500016711650.9874999998137411.36500016786160.98749999981374
11.41500016860660.9874999998137411.46500016935170.98749999981374
11.51500017009680.9874999998137411.56500017084180.98749999981374
11.61500017158690.9874999998137411.66500017233190.98749999981374
 11.7150001730770.98749999981374 11.7650001738220.98749999981374
11.81500017456710.9874999998137411.86500017531220.98749999981374
11.91500017605720.9874999998137411.96500017680230.98749999981374
12.01500017754730.9874999998137412.06500017829240.98749999981374
12.11500017903750.9874999998137412.16500017978250.98749999981374
12.21500018052760.9874999998137412.26500018127260.98749999981374
12.31500018201770.9874999998137412.36500018276270.98749999981374
12.41500018350780.9874999998137412.46500018425290.98749999981374
12.51500018499790.98749999981374 12.5650001857430.98749999981374
 12.6150001864880.9874999998137412.66500018723310.98749999981374
12.71500018797810.9874999998137412.76500018872320.98749999981374
12.81500018946830.9874999998137412.86500019021330.98749999981374
12.91500019095840.9874999998137412.96500019170340.98749999981374
13.01500019244850.9874999998137413.06500019319360.98749999981374
13.11500019393860.9874999998137413.16500019468370.98749999981374
13.21500019542870.9874999998137413.26500019617380.98749999981374
13.31500019691880.9874999998137413.36500019766390.98749999981374
 13.4150001984090.98749999981374 13.4650001991540.98749999981374
13.51500019989910.9874999998137413.56500020064410.98749999981374
13.61500020138920.9874999998137413.66500020213430.98749999981374
13.71500020287930.9874999998137413.76500020362440.98749999981374
13.81500020436940.9874999998137413.86500020511450.98749999981374
13.91500020585950.9874999998137413.96500020660460.98749999981374
14.01500020734970.9874999998137414.06500020809470.98749999981374
14.11500020883980.9874999998137414.16500020958480.98749999981374
14.21500021032990.9874999998137414.26500021107490.98749999981374
  14.315000211820.9874999998137414.36500021256510.98749999981374
14.41500021331010.9874999998137414.46500021405520.98749999981374
14.51500021480020.9874999998137414.56500021554530.98749999981374
14.61500021629040.9874999998137414.66500021703540.98749999981374
14.71500021778050.9874999998137414.76500021852550.98749999981374
14.81500021927060.9874999998137414.86500022001560.98749999981374
14.91500022076070.9874999998137414.96500022150580.98749999981374
15.01500022225080.9874999998137415.06500022299590.98749999981374
15.11500022374090.98749999981374 15.1650002244860.98749999981374
15.21500022523110.9874999998137415.26500022597610.98749999981374
15.31500022672120.9874999998137415.36500022746620.98749999981374
15.41500022821130.9874999998137415.46500022895630.98749999981374
15.51500022970140.9874999998137415.56500023044650.98749999981374
15.61500023119150.9874999998137415.66500023193660.98749999981374
15.71500023268160.9874999998137415.76500023342670.98749999981374
15.81500023417170.9874999998137415.86500023491680.98749999981374
15.91500023566190.9874999998137415.96500023640690.98749999981374
 16.0150002371520.98749999981374 16.0650002378970.98749999981374
16.11500023864210.9874999998137416.16500023938720.98749999981374
16.21500024013220.9874999998137416.26500024087730.98749999981374
16.31500024162230.9874999998137416.36500024236740.98749999981374
16.41500024311240.9874999998137416.46500024385750.98749999981374
0.064999999478460.962499999441210.115000000223520.96249999944121
0.165000000968580.962499999441210.215000001713630.96249999944121
0.265000002458690.962499999441210.315000003203750.96249999944121
0.365000003948810.962499999441210.415000004693870.96249999944121
0.465000005438920.962499999441210.515000006183980.96249999944121
0.565000006929040.96249999944121 0.61500000767410.96249999944121
0.665000008419160.962499999441210.715000009164210.96249999944121
0.765000009909270.962499999441210.815000010654330.96249999944121
0.865000011399390.962499999441210.915000012144450.96249999944121
 0.96500001288950.962499999441211.015000013634560.96249999944121
1.065000014379620.962499999441211.115000015124680.96249999944121
1.165000015869740.962499999441211.215000016614790.96249999944121
1.265000017359850.962499999441211.315000018104910.96249999944121
1.365000018849970.962499999441211.415000019595030.96249999944121
1.465000020340090.962499999441211.515000021085140.96249999944121
 1.56500002183020.962499999441211.615000022575260.96249999944121
1.665000023320320.962499999441211.715000024065380.96249999944121
1.765000024810430.962499999441211.815000025555490.96249999944121
1.865000026300550.962499999441211.915000027045610.96249999944121
1.965000027790670.962499999441212.015000028535720.96249999944121
2.065000029280780.962499999441212.115000030025840.96249999944121
 2.16500003077090.962499999441212.215000031515960.96249999944121
2.265000032261010.962499999441212.315000033006070.96249999944121
2.365000033751130.962499999441212.415000034496190.96249999944121
2.465000035241250.96249999944121 2.51500003598630.96249999944121
2.565000036731360.962499999441212.615000037476420.96249999944121
2.665000038221480.962499999441212.715000038966540.96249999944121
2.765000039711590.962499999441212.815000040456650.96249999944121
2.865000041201710.962499999441212.915000041946770.96249999944121
2.965000042691830.962499999441213.015000043436880.96249999944121
3.065000044181940.96249999944121  3.1150000449270.96249999944121
3.165000045672060.962499999441213.215000046417120.96249999944121
3.265000047162180.962499999441213.315000047907230.96249999944121
3.365000048652290.962499999441213.415000049397350.96249999944121
3.465000050142410.962499999441213.515000050887470.96249999944121
3.565000051632520.962499999441213.615000052377580.96249999944121
3.665000053122640.96249999944121 3.71500005386770.96249999944121
3.765000054612760.962499999441213.815000055357810.96249999944121
3.865000056102870.962499999441213.915000056847930.96249999944121
3.965000057592990.9624999994412110.76500015892090.96249999944121
10.81500015966590.96249999944121 10.8650001604110.96249999944121
10.91500016115610.9624999994412110.96500016190110.96249999944121
11.01500016264620.9624999994412111.06500016339120.96249999944121
11.11500016413630.9624999994412111.16500016488130.96249999944121
11.21500016562640.9624999994412111.26500016637150.96249999944121
11.31500016711650.9624999994412111.36500016786160.96249999944121
11.41500016860660.9624999994412111.46500016935170.96249999944121
11.51500017009680.9624999994412111.56500017084180.96249999944121
11.61500017158690.9624999994412111.66500017233190.96249999944121
 11.7150001730770.96249999944121 11.7650001738220.96249999944121
11.81500017456710.9624999994412111.86500017531220.96249999944121
11.91500017605720.9624999994412111.96500017680230.96249999944121
12.01500017754730.9624999994412112.06500017829240.96249999944121
12.11500017903750.9624999994412112.16500017978250.96249999944121
12.21500018052760.9624999994412112.26500018127260.96249999944121
12.31500018201770.9624999994412112.36500018276270.96249999944121
12.41500018350780.9624999994412112.46500018425290.96249999944121
12.51500018499790.96249999944121 12.5650001857430.96249999944121
 12.6150001864880.9624999994412112.66500018723310.96249999944121
12.71500018797810.9624999994412112.76500018872320.96249999944121
12.81500018946830.9624999994412112.86500019021330.96249999944121
12.91500019095840.9624999994412112.96500019170340.96249999944121
13.01500019244850.9624999994412113.06500019319360.96249999944121
13.11500019393860.9624999994412113.16500019468370.96249999944121
13.21500019542870.9624999994412113.26500019617380.96249999944121
13.31500019691880.9624999994412113.36500019766390.96249999944121
 13.4150001984090.96249999944121 13.4650001991540.96249999944121
13.51500019989910.9624999994412113.56500020064410.96249999944121
13.61500020138920.9624999994412113.66500020213430.96249999944121
13.71500020287930.9624999994412113.76500020362440.96249999944121
13.81500020436940.9624999994412113.86500020511450.96249999944121
13.91500020585950.9624999994412113.96500020660460.96249999944121
14.01500020734970.9624999994412114.06500020809470.96249999944121
14.11500020883980.9624999994412114.16500020958480.96249999944121
14.21500021032990.9624999994412114.26500021107490.96249999944121
  14.315000211820.9624999994412114.36500021256510.96249999944121
14.41500021331010.9624999994412114.46500021405520.96249999944121
14.51500021480020.9624999994412114.56500021554530.96249999944121
14.61500021629040.9624999994412114.66500021703540.96249999944121
14.71500021778050.9624999994412114.76500021852550.96249999944121
14.81500021927060.9624999994412114.86500022001560.96249999944121
14.91500022076070.9624999994412114.96500022150580.96249999944121
15.01500022225080.9624999994412115.06500022299590.96249999944121
15.11500022374090.96249999944121 15.1650002244860.96249999944121
15.21500022523110.9624999994412115.26500022597610.96249999944121
15.31500022672120.9624999994412115.36500022746620.96249999944121
15.41500022821130.9624999994412115.46500022895630.96249999944121
15.51500022970140.9624999994412115.56500023044650.96249999944121
15.61500023119150.9624999994412115.66500023193660.96249999944121
15.71500023268160.9624999994412115.76500023342670.96249999944121
15.81500023417170.9624999994412115.86500023491680.96249999944121
15.91500023566190.9624999994412115.96500023640690.96249999944121
 16.0150002371520.96249999944121 16.0650002378970.96249999944121
16.11500023864210.9624999994412116.16500023938720.96249999944121
16.21500024013220.9624999994412116.26500024087730.96249999944121
16.31500024162230.9624999994412116.36500024236740.96249999944121
16.41500024311240.9624999994412116.46500024385750.96249999944121
0.064999999478460.937499999068680.115000000223520.93749999906868
0.165000000968580.937499999068680.215000001713630.93749999906868
0.265000002458690.937499999068680.315000003203750.93749999906868
0.365000003948810.937499999068680.415000004693870.93749999906868
0.465000005438920.937499999068680.515000006183980.93749999906868
0.565000006929040.93749999906868 0.61500000767410.93749999906868
0.665000008419160.937499999068680.715000009164210.93749999906868
0.765000009909270.937499999068680.815000010654330.93749999906868
0.865000011399390.937499999068680.915000012144450.93749999906868
 0.96500001288950.937499999068681.015000013634560.93749999906868
1.065000014379620.937499999068681.115000015124680.93749999906868
1.165000015869740.937499999068681.215000016614790.93749999906868
1.265000017359850.937499999068681.315000018104910.93749999906868
1.365000018849970.937499999068681.415000019595030.93749999906868
1.465000020340090.937499999068681.515000021085140.93749999906868
 1.56500002183020.937499999068681.615000022575260.93749999906868
1.665000023320320.937499999068681.715000024065380.93749999906868
1.765000024810430.937499999068681.815000025555490.93749999906868
1.865000026300550.937499999068681.915000027045610.93749999906868
1.965000027790670.937499999068682.015000028535720.93749999906868
2.065000029280780.937499999068682.115000030025840.93749999906868
 2.16500003077090.937499999068682.215000031515960.93749999906868
2.265000032261010.937499999068682.315000033006070.93749999906868
2.365000033751130.937499999068682.415000034496190.93749999906868
2.465000035241250.93749999906868 2.51500003598630.93749999906868
2.565000036731360.937499999068682.615000037476420.93749999906868
2.665000038221480.937499999068682.715000038966540.93749999906868
2.765000039711590.937499999068682.815000040456650.93749999906868
2.865000041201710.937499999068682.915000041946770.93749999906868
2.965000042691830.937499999068683.015000043436880.93749999906868
3.065000044181940.93749999906868  3.1150000449270.93749999906868
3.165000045672060.937499999068683.215000046417120.93749999906868
3.265000047162180.937499999068683.315000047907230.93749999906868
3.365000048652290.937499999068683.415000049397350.93749999906868
3.465000050142410.937499999068683.515000050887470.93749999906868
3.565000051632520.937499999068683.615000052377580.93749999906868
3.665000053122640.93749999906868 3.71500005386770.93749999906868
3.765000054612760.937499999068683.815000055357810.93749999906868
3.865000056102870.937499999068683.915000056847930.93749999906868
3.965000057592990.937499999068684.015000058338050.93749999906868
10.71500015817580.9374999990686810.76500015892090.93749999906868
10.81500015966590.93749999906868 10.8650001604110.93749999906868
10.91500016115610.9374999990686810.96500016190110.93749999906868
11.01500016264620.9374999990686811.06500016339120.93749999906868
11.11500016413630.9374999990686811.16500016488130.93749999906868
11.21500016562640.9374999990686811.26500016637150.93749999906868
11.31500016711650.9374999990686811.36500016786160.93749999906868
11.41500016860660.9374999990686811.46500016935170.93749999906868
11.51500017009680.9374999990686811.56500017084180.93749999906868
11.61500017158690.9374999990686811.66500017233190.93749999906868
 11.7150001730770.93749999906868 11.7650001738220.93749999906868
11.81500017456710.9374999990686811.86500017531220.93749999906868
11.91500017605720.9374999990686811.96500017680230.93749999906868
12.01500017754730.9374999990686812.06500017829240.93749999906868
12.11500017903750.9374999990686812.16500017978250.93749999906868
12.21500018052760.9374999990686812.26500018127260.93749999906868
12.31500018201770.9374999990686812.36500018276270.93749999906868
12.41500018350780.9374999990686812.46500018425290.93749999906868
12.51500018499790.93749999906868 12.5650001857430.93749999906868
 12.6150001864880.9374999990686812.66500018723310.93749999906868
12.71500018797810.9374999990686812.76500018872320.93749999906868
12.81500018946830.9374999990686812.86500019021330.93749999906868
12.91500019095840.9374999990686812.96500019170340.93749999906868
13.01500019244850.9374999990686813.06500019319360.93749999906868
13.11500019393860.9374999990686813.16500019468370.93749999906868
13.21500019542870.9374999990686813.26500019617380.93749999906868
13.31500019691880.9374999990686813.36500019766390.93749999906868
 13.4150001984090.93749999906868 13.4650001991540.93749999906868
13.51500019989910.9374999990686813.56500020064410.93749999906868
13.61500020138920.9374999990686813.66500020213430.93749999906868
13.71500020287930.9374999990686813.76500020362440.93749999906868
13.81500020436940.9374999990686813.86500020511450.93749999906868
13.91500020585950.9374999990686813.96500020660460.93749999906868
14.01500020734970.9374999990686814.06500020809470.93749999906868
14.11500020883980.9374999990686814.16500020958480.93749999906868
14.21500021032990.9374999990686814.26500021107490.93749999906868
  14.315000211820.9374999990686814.36500021256510.93749999906868
14.41500021331010.9374999990686814.46500021405520.93749999906868
14.51500021480020.9374999990686814.56500021554530.93749999906868
14.61500021629040.9374999990686814.66500021703540.93749999906868
14.71500021778050.9374999990686814.76500021852550.93749999906868
14.81500021927060.9374999990686814.86500022001560.93749999906868
14.91500022076070.9374999990686814.96500022150580.93749999906868
15.01500022225080.9374999990686815.06500022299590.93749999906868
15.11500022374090.93749999906868 15.1650002244860.93749999906868
15.21500022523110.9374999990686815.26500022597610.93749999906868
15.31500022672120.9374999990686815.36500022746620.93749999906868
15.41500022821130.9374999990686815.46500022895630.93749999906868
15.51500022970140.9374999990686815.56500023044650.93749999906868
15.61500023119150.9374999990686815.66500023193660.93749999906868
15.71500023268160.9374999990686815.76500023342670.93749999906868
15.81500023417170.9374999990686815.86500023491680.93749999906868
15.91500023566190.9374999990686815.96500023640690.93749999906868
 16.0150002371520.93749999906868 16.0650002378970.93749999906868
16.11500023864210.9374999990686816.16500023938720.93749999906868
16.21500024013220.9374999990686816.26500024087730.93749999906868
16.31500024162230.9374999990686816.36500024236740.93749999906868
16.41500024311240.9374999990686816.46500024385750.93749999906868
0.064999999478460.912499998696150.115000000223520.91249999869615
0.165000000968580.912499998696150.215000001713630.91249999869615
0.265000002458690.912499998696150.315000003203750.91249999869615
0.365000003948810.912499998696150.415000004693870.91249999869615
0.465000005438920.912499998696150.515000006183980.91249999869615
0.565000006929040.91249999869615 0.61500000767410.91249999869615
0.665000008419160.912499998696150.715000009164210.91249999869615
0.765000009909270.912499998696150.815000010654330.91249999869615
0.865000011399390.912499998696150.915000012144450.91249999869615
 0.96500001288950.912499998696151.015000013634560.91249999869615
1.065000014379620.912499998696151.115000015124680.91249999869615
1.165000015869740.912499998696151.215000016614790.91249999869615
1.265000017359850.912499998696151.315000018104910.91249999869615
1.365000018849970.912499998696151.415000019595030.91249999869615
1.465000020340090.912499998696151.515000021085140.91249999869615
 1.56500002183020.912499998696151.615000022575260.91249999869615
1.665000023320320.912499998696151.715000024065380.91249999869615
1.765000024810430.912499998696151.815000025555490.91249999869615
1.865000026300550.912499998696151.915000027045610.91249999869615
1.965000027790670.912499998696152.015000028535720.91249999869615
2.065000029280780.912499998696152.115000030025840.91249999869615
 2.16500003077090.912499998696152.215000031515960.91249999869615
2.265000032261010.912499998696152.315000033006070.91249999869615
2.365000033751130.912499998696152.415000034496190.91249999869615
2.465000035241250.91249999869615 2.51500003598630.91249999869615
2.565000036731360.912499998696152.615000037476420.91249999869615
2.665000038221480.912499998696152.715000038966540.91249999869615
2.765000039711590.912499998696152.815000040456650.91249999869615
2.865000041201710.912499998696152.915000041946770.91249999869615
2.965000042691830.912499998696153.015000043436880.91249999869615
3.065000044181940.91249999869615  3.1150000449270.91249999869615
3.165000045672060.912499998696153.215000046417120.91249999869615
3.265000047162180.912499998696153.315000047907230.91249999869615
3.365000048652290.912499998696153.415000049397350.91249999869615
3.465000050142410.912499998696153.515000050887470.91249999869615
3.565000051632520.912499998696153.615000052377580.91249999869615
3.665000053122640.91249999869615 3.71500005386770.91249999869615
3.765000054612760.912499998696153.815000055357810.91249999869615
3.865000056102870.912499998696153.915000056847930.91249999869615
3.965000057592990.912499998696154.015000058338050.91249999869615
 4.06500005908310.9124999986961510.66500015743080.91249999869615
10.71500015817580.9124999986961510.76500015892090.91249999869615
10.81500015966590.91249999869615 10.8650001604110.91249999869615
10.91500016115610.9124999986961510.96500016190110.91249999869615
11.01500016264620.9124999986961511.06500016339120.91249999869615
11.11500016413630.9124999986961511.16500016488130.91249999869615
11.21500016562640.9124999986961511.26500016637150.91249999869615
11.31500016711650.9124999986961511.36500016786160.91249999869615
11.41500016860660.9124999986961511.46500016935170.91249999869615
11.51500017009680.9124999986961511.56500017084180.91249999869615
11.61500017158690.9124999986961511.66500017233190.91249999869615
 11.7150001730770.91249999869615 11.7650001738220.91249999869615
11.81500017456710.9124999986961511.86500017531220.91249999869615
11.91500017605720.9124999986961511.96500017680230.91249999869615
12.01500017754730.9124999986961512.06500017829240.91249999869615
12.11500017903750.9124999986961512.16500017978250.91249999869615
12.21500018052760.9124999986961512.26500018127260.91249999869615
12.31500018201770.9124999986961512.36500018276270.91249999869615
12.41500018350780.9124999986961512.46500018425290.91249999869615
12.51500018499790.91249999869615 12.5650001857430.91249999869615
 12.6150001864880.9124999986961512.66500018723310.91249999869615
12.71500018797810.9124999986961512.76500018872320.91249999869615
12.81500018946830.9124999986961512.86500019021330.91249999869615
12.91500019095840.9124999986961512.96500019170340.91249999869615
13.01500019244850.9124999986961513.06500019319360.91249999869615
13.11500019393860.9124999986961513.16500019468370.91249999869615
13.21500019542870.9124999986961513.26500019617380.91249999869615
13.31500019691880.9124999986961513.36500019766390.91249999869615
 13.4150001984090.91249999869615 13.4650001991540.91249999869615
13.51500019989910.9124999986961513.56500020064410.91249999869615
13.61500020138920.9124999986961513.66500020213430.91249999869615
13.71500020287930.9124999986961513.76500020362440.91249999869615
13.81500020436940.9124999986961513.86500020511450.91249999869615
13.91500020585950.9124999986961513.96500020660460.91249999869615
14.01500020734970.9124999986961514.06500020809470.91249999869615
14.11500020883980.9124999986961514.16500020958480.91249999869615
14.21500021032990.9124999986961514.26500021107490.91249999869615
  14.315000211820.9124999986961514.36500021256510.91249999869615
14.41500021331010.9124999986961514.46500021405520.91249999869615
14.51500021480020.9124999986961514.56500021554530.91249999869615
14.61500021629040.9124999986961514.66500021703540.91249999869615
14.71500021778050.9124999986961514.76500021852550.91249999869615
14.81500021927060.9124999986961514.86500022001560.91249999869615
14.91500022076070.9124999986961514.96500022150580.91249999869615
15.01500022225080.9124999986961515.06500022299590.91249999869615
15.11500022374090.91249999869615 15.1650002244860.91249999869615
15.21500022523110.9124999986961515.26500022597610.91249999869615
15.31500022672120.9124999986961515.36500022746620.91249999869615
15.41500022821130.9124999986961515.46500022895630.91249999869615
15.51500022970140.9124999986961515.56500023044650.91249999869615
15.61500023119150.9124999986961515.66500023193660.91249999869615
15.71500023268160.9124999986961515.76500023342670.91249999869615
15.81500023417170.9124999986961515.86500023491680.91249999869615
15.91500023566190.9124999986961515.96500023640690.91249999869615
 16.0150002371520.91249999869615 16.0650002378970.91249999869615
16.11500023864210.9124999986961516.16500023938720.91249999869615
16.21500024013220.9124999986961516.26500024087730.91249999869615
16.31500024162230.9124999986961516.36500024236740.91249999869615
16.41500024311240.9124999986961516.46500024385750.91249999869615
0.064999999478460.887499998323620.115000000223520.88749999832362
0.165000000968580.887499998323620.215000001713630.88749999832362
0.265000002458690.887499998323620.315000003203750.88749999832362
0.365000003948810.887499998323620.415000004693870.88749999832362
0.465000005438920.887499998323620.515000006183980.88749999832362
0.565000006929040.88749999832362 0.61500000767410.88749999832362
0.665000008419160.887499998323620.715000009164210.88749999832362
0.765000009909270.887499998323620.815000010654330.88749999832362
0.865000011399390.887499998323620.915000012144450.88749999832362
 0.96500001288950.887499998323621.015000013634560.88749999832362
1.065000014379620.887499998323621.115000015124680.88749999832362
1.165000015869740.887499998323621.215000016614790.88749999832362
1.265000017359850.887499998323621.315000018104910.88749999832362
1.365000018849970.887499998323621.415000019595030.88749999832362
1.465000020340090.887499998323621.515000021085140.88749999832362
 1.56500002183020.887499998323621.615000022575260.88749999832362
1.665000023320320.887499998323621.715000024065380.88749999832362
1.765000024810430.887499998323621.815000025555490.88749999832362
1.865000026300550.887499998323621.915000027045610.88749999832362
1.965000027790670.887499998323622.015000028535720.88749999832362
2.065000029280780.887499998323622.115000030025840.88749999832362
 2.16500003077090.887499998323622.215000031515960.88749999832362
2.265000032261010.887499998323622.315000033006070.88749999832362
2.365000033751130.887499998323622.415000034496190.88749999832362
2.465000035241250.88749999832362 2.51500003598630.88749999832362
2.565000036731360.887499998323622.615000037476420.88749999832362
2.665000038221480.887499998323622.715000038966540.88749999832362
2.765000039711590.887499998323622.815000040456650.88749999832362
2.865000041201710.887499998323622.915000041946770.88749999832362
2.965000042691830.887499998323623.015000043436880.88749999832362
3.065000044181940.88749999832362  3.1150000449270.88749999832362
3.165000045672060.887499998323623.215000046417120.88749999832362
3.265000047162180.887499998323623.315000047907230.88749999832362
3.365000048652290.887499998323623.415000049397350.88749999832362
3.465000050142410.887499998323623.515000050887470.88749999832362
3.565000051632520.887499998323623.615000052377580.88749999832362
3.665000053122640.88749999832362 3.71500005386770.88749999832362
3.765000054612760.887499998323623.815000055357810.88749999832362
3.865000056102870.887499998323623.915000056847930.88749999832362
3.965000057592990.887499998323624.015000058338050.88749999832362
 4.06500005908310.887499998323624.115000059828160.88749999832362
10.61500015668570.8874999983236210.66500015743080.88749999832362
10.71500015817580.8874999983236210.76500015892090.88749999832362
10.81500015966590.88749999832362 10.8650001604110.88749999832362
10.91500016115610.8874999983236210.96500016190110.88749999832362
11.01500016264620.8874999983236211.06500016339120.88749999832362
11.11500016413630.8874999983236211.16500016488130.88749999832362
11.21500016562640.8874999983236211.26500016637150.88749999832362
11.31500016711650.8874999983236211.36500016786160.88749999832362
11.41500016860660.8874999983236211.46500016935170.88749999832362
11.51500017009680.8874999983236211.56500017084180.88749999832362
11.61500017158690.8874999983236211.66500017233190.88749999832362