Geom Title=2D Sediment Workshop
Program Version=6.31
Viewing Rectangle=-1.18 , 17.3266532012407 , 2.03 ,-1.03 

Storage Area=2DArea          ,,
Storage Area Surface Line= 9 
              0.              0.                
              0.              1.                
            3.93              1.                
            4.88             0.5                
            9.84             0.5                
           10.81              1.                
            16.5              1.                
            16.5              0.                
              0.              0.                
Storage Area Type= 1 
Storage Area Area=
Storage Area Min Elev=
Storage Area Is2D=-1
Storage Area Point Generation Data=0,0,0.1,0.05
Storage Area 2D Points= 2702 
0.050000000745060.974999999627470.150000002235170.97499999962747
0.250000003725290.974999999627470.350000005215410.97499999962747
0.450000006705520.974999999627470.550000008195640.97499999962747
0.650000009685760.974999999627470.750000011175870.97499999962747
0.850000012665990.97499999962747 0.95000001415610.97499999962747
1.050000015646220.974999999627471.150000017136340.97499999962747
1.250000018626450.974999999627471.350000020116570.97499999962747
1.450000021606680.97499999962747 1.55000002309680.97499999962747
1.650000024586920.974999999627471.750000026077030.97499999962747
1.850000027567150.974999999627471.950000029057260.97499999962747
2.050000030547380.97499999962747 2.15000003203750.97499999962747
2.250000033527610.974999999627472.350000035017730.97499999962747
2.450000036507840.974999999627472.550000037997960.97499999962747
2.650000039488080.974999999627472.750000040978190.97499999962747
2.850000042468310.974999999627472.950000043958430.97499999962747
3.050000045448540.974999999627473.150000046938660.97499999962747
3.250000048428770.974999999627473.350000049918890.97499999962747
3.450000051409010.974999999627473.550000052899120.97499999962747
3.650000054389240.974999999627473.750000055879350.97499999962747
3.850000057369470.974999999627473.950000058859590.97499999962747
10.85000016167760.9749999996274710.95000016316770.97499999962747
11.05000016465780.9749999996274711.15000016614790.97499999962747
11.25000016763810.9749999996274711.35000016912820.97499999962747
11.45000017061830.9749999996274711.55000017210840.97499999962747
11.65000017359850.9749999996274711.75000017508860.97499999962747
11.85000017657880.9749999996274711.95000017806890.97499999962747
 12.0500001795590.9749999996274712.15000018104910.97499999962747
12.25000018253920.9749999996274712.35000018402930.97499999962747
12.45000018551950.9749999996274712.55000018700960.97499999962747
12.65000018849970.9749999996274712.75000018998980.97499999962747
12.85000019147990.97499999962747  12.950000192970.97499999962747
13.05000019446020.9749999996274713.15000019595030.97499999962747
13.25000019744040.9749999996274713.35000019893050.97499999962747
13.45000020042060.9749999996274713.55000020191070.97499999962747
13.65000020340090.97499999962747 13.7500002048910.97499999962747
13.85000020638110.9749999996274713.95000020787120.97499999962747
14.05000020936130.9749999996274714.15000021085140.97499999962747
14.25000021234150.9749999996274714.35000021383170.97499999962747
14.45000021532180.9749999996274714.55000021681190.97499999962747
 14.6500002183020.9749999996274714.75000021979210.97499999962747
14.85000022128220.9749999996274714.95000022277240.97499999962747
15.05000022426250.9749999996274715.15000022575260.97499999962747
15.25000022724270.9749999996274715.35000022873280.97499999962747
15.45000023022290.9749999996274715.55000023171310.97499999962747
15.65000023320320.9749999996274715.75000023469330.97499999962747
15.85000023618340.9749999996274715.95000023767350.97499999962747
16.05000023916360.9749999996274716.15000024065380.97499999962747
16.25000024214390.97499999962747 16.3500002436340.97499999962747
16.45000024512410.974999999627470.050000000745060.92499999888241
0.150000002235170.924999998882410.250000003725290.92499999888241
0.350000005215410.924999998882410.450000006705520.92499999888241
0.550000008195640.924999998882410.650000009685760.92499999888241
0.750000011175870.924999998882410.850000012665990.92499999888241
 0.95000001415610.924999998882411.050000015646220.92499999888241
1.150000017136340.924999998882411.250000018626450.92499999888241
1.350000020116570.924999998882411.450000021606680.92499999888241
 1.55000002309680.924999998882411.650000024586920.92499999888241
1.750000026077030.924999998882411.850000027567150.92499999888241
1.950000029057260.924999998882412.050000030547380.92499999888241
 2.15000003203750.924999998882412.250000033527610.92499999888241
2.350000035017730.924999998882412.450000036507840.92499999888241
2.550000037997960.924999998882412.650000039488080.92499999888241
2.750000040978190.924999998882412.850000042468310.92499999888241
2.950000043958430.924999998882413.050000045448540.92499999888241
3.150000046938660.924999998882413.250000048428770.92499999888241
3.350000049918890.924999998882413.450000051409010.92499999888241
3.550000052899120.924999998882413.650000054389240.92499999888241
3.750000055879350.924999998882413.850000057369470.92499999888241
3.950000058859590.9249999988824110.75000016018750.92499999888241
10.85000016167760.9249999988824110.95000016316770.92499999888241
11.05000016465780.9249999988824111.15000016614790.92499999888241
11.25000016763810.9249999988824111.35000016912820.92499999888241
11.45000017061830.9249999988824111.55000017210840.92499999888241
11.65000017359850.9249999988824111.75000017508860.92499999888241
11.85000017657880.9249999988824111.95000017806890.92499999888241
 12.0500001795590.9249999988824112.15000018104910.92499999888241
12.25000018253920.9249999988824112.35000018402930.92499999888241
12.45000018551950.9249999988824112.55000018700960.92499999888241
12.65000018849970.9249999988824112.75000018998980.92499999888241
12.85000019147990.92499999888241  12.950000192970.92499999888241
13.05000019446020.9249999988824113.15000019595030.92499999888241
13.25000019744040.9249999988824113.35000019893050.92499999888241
13.45000020042060.9249999988824113.55000020191070.92499999888241
13.65000020340090.92499999888241 13.7500002048910.92499999888241
13.85000020638110.9249999988824113.95000020787120.92499999888241
14.05000020936130.9249999988824114.15000021085140.92499999888241
14.25000021234150.9249999988824114.35000021383170.92499999888241
14.45000021532180.9249999988824114.55000021681190.92499999888241
 14.6500002183020.9249999988824114.75000021979210.92499999888241
14.85000022128220.9249999988824114.95000022277240.92499999888241
15.05000022426250.9249999988824115.15000022575260.92499999888241
15.25000022724270.9249999988824115.35000022873280.92499999888241
15.45000023022290.9249999988824115.55000023171310.92499999888241
15.65000023320320.9249999988824115.75000023469330.92499999888241
15.85000023618340.9249999988824115.95000023767350.92499999888241
16.05000023916360.9249999988824116.15000024065380.92499999888241
16.25000024214390.92499999888241 16.3500002436340.92499999888241
16.45000024512410.924999998882410.050000000745060.87499999813736
0.150000002235170.874999998137360.250000003725290.87499999813736
0.350000005215410.874999998137360.450000006705520.87499999813736
0.550000008195640.874999998137360.650000009685760.87499999813736
0.750000011175870.874999998137360.850000012665990.87499999813736
 0.95000001415610.874999998137361.050000015646220.87499999813736
1.150000017136340.874999998137361.250000018626450.87499999813736
1.350000020116570.874999998137361.450000021606680.87499999813736
 1.55000002309680.874999998137361.650000024586920.87499999813736
1.750000026077030.874999998137361.850000027567150.87499999813736
1.950000029057260.874999998137362.050000030547380.87499999813736
 2.15000003203750.874999998137362.250000033527610.87499999813736
2.350000035017730.874999998137362.450000036507840.87499999813736
2.550000037997960.874999998137362.650000039488080.87499999813736
2.750000040978190.874999998137362.850000042468310.87499999813736
2.950000043958430.874999998137363.050000045448540.87499999813736
3.150000046938660.874999998137363.250000048428770.87499999813736
3.350000049918890.874999998137363.450000051409010.87499999813736
3.550000052899120.874999998137363.650000054389240.87499999813736
3.750000055879350.874999998137363.850000057369470.87499999813736
3.950000058859590.87499999813736 4.05000006034970.87499999813736
10.65000015869740.8749999981373610.75000016018750.87499999813736
10.85000016167760.8749999981373610.95000016316770.87499999813736
11.05000016465780.8749999981373611.15000016614790.87499999813736
11.25000016763810.8749999981373611.35000016912820.87499999813736
11.45000017061830.8749999981373611.55000017210840.87499999813736
11.65000017359850.8749999981373611.75000017508860.87499999813736
11.85000017657880.8749999981373611.95000017806890.87499999813736
 12.0500001795590.8749999981373612.15000018104910.87499999813736
12.25000018253920.8749999981373612.35000018402930.87499999813736
12.45000018551950.8749999981373612.55000018700960.87499999813736
12.65000018849970.8749999981373612.75000018998980.87499999813736
12.85000019147990.87499999813736  12.950000192970.87499999813736
13.05000019446020.8749999981373613.15000019595030.87499999813736
13.25000019744040.8749999981373613.35000019893050.87499999813736
13.45000020042060.8749999981373613.55000020191070.87499999813736
13.65000020340090.87499999813736 13.7500002048910.87499999813736
13.85000020638110.8749999981373613.95000020787120.87499999813736
14.05000020936130.8749999981373614.15000021085140.87499999813736
14.25000021234150.8749999981373614.35000021383170.87499999813736
14.45000021532180.8749999981373614.55000021681190.87499999813736
 14.6500002183020.8749999981373614.75000021979210.87499999813736
14.85000022128220.8749999981373614.95000022277240.87499999813736
15.05000022426250.8749999981373615.15000022575260.87499999813736
15.25000022724270.8749999981373615.35000022873280.87499999813736
15.45000023022290.8749999981373615.55000023171310.87499999813736
15.65000023320320.8749999981373615.75000023469330.87499999813736
15.85000023618340.8749999981373615.95000023767350.87499999813736
16.05000023916360.8749999981373616.15000024065380.87499999813736
16.25000024214390.87499999813736 16.3500002436340.87499999813736
16.45000024512410.874999998137360.05000000074506 0.8249999973923
0.15000000223517 0.82499999739230.25000000372529 0.8249999973923
0.35000000521541 0.82499999739230.45000000670552 0.8249999973923
0.55000000819564 0.82499999739230.65000000968576 0.8249999973923
0.75000001117587 0.82499999739230.85000001266599 0.8249999973923
 0.9500000141561 0.82499999739231.05000001564622 0.8249999973923
1.15000001713634 0.82499999739231.25000001862645 0.8249999973923
1.35000002011657 0.82499999739231.45000002160668 0.8249999973923
 1.5500000230968 0.82499999739231.65000002458692 0.8249999973923
1.75000002607703 0.82499999739231.85000002756715 0.8249999973923
1.95000002905726 0.82499999739232.05000003054738 0.8249999973923
 2.1500000320375 0.82499999739232.25000003352761 0.8249999973923
2.35000003501773 0.82499999739232.45000003650784 0.8249999973923
2.55000003799796 0.82499999739232.65000003948808 0.8249999973923
2.75000004097819 0.82499999739232.85000004246831 0.8249999973923
2.95000004395843 0.82499999739233.05000004544854 0.8249999973923
3.15000004693866 0.82499999739233.25000004842877 0.8249999973923
3.35000004991889 0.82499999739233.45000005140901 0.8249999973923
3.55000005289912 0.82499999739233.65000005438924 0.8249999973923
3.75000005587935 0.82499999739233.85000005736947 0.8249999973923
3.95000005885959 0.8249999973923 4.0500000603497 0.8249999973923
4.15000006183982 0.824999997392310.5500001572073 0.8249999973923
10.6500001586974 0.824999997392310.7500001601875 0.8249999973923
10.8500001616776 0.824999997392310.9500001631677 0.8249999973923
11.0500001646578 0.824999997392311.1500001661479 0.8249999973923
11.2500001676381 0.824999997392311.3500001691282 0.8249999973923
11.4500001706183 0.824999997392311.5500001721084 0.8249999973923
11.6500001735985 0.824999997392311.7500001750886 0.8249999973923
11.8500001765788 0.824999997392311.9500001780689 0.8249999973923
 12.050000179559 0.824999997392312.1500001810491 0.8249999973923
12.2500001825392 0.824999997392312.3500001840293 0.8249999973923
12.4500001855195 0.824999997392312.5500001870096 0.8249999973923
12.6500001884997 0.824999997392312.7500001899898 0.8249999973923
12.8500001914799 0.8249999973923  12.95000019297 0.8249999973923
13.0500001944602 0.824999997392313.1500001959503 0.8249999973923
13.2500001974404 0.824999997392313.3500001989305 0.8249999973923
13.4500002004206 0.824999997392313.5500002019107 0.8249999973923
13.6500002034009 0.8249999973923 13.750000204891 0.8249999973923
13.8500002063811 0.824999997392313.9500002078712 0.8249999973923
14.0500002093613 0.824999997392314.1500002108514 0.8249999973923
14.2500002123415 0.824999997392314.3500002138317 0.8249999973923
14.4500002153218 0.824999997392314.5500002168119 0.8249999973923
 14.650000218302 0.824999997392314.7500002197921 0.8249999973923
14.8500002212822 0.824999997392314.9500002227724 0.8249999973923
15.0500002242625 0.824999997392315.1500002257526 0.8249999973923
15.2500002272427 0.824999997392315.3500002287328 0.8249999973923
15.4500002302229 0.824999997392315.5500002317131 0.8249999973923
15.6500002332032 0.824999997392315.7500002346933 0.8249999973923
15.8500002361834 0.824999997392315.9500002376735 0.8249999973923
16.0500002391636 0.824999997392316.1500002406538 0.8249999973923
16.2500002421439 0.8249999973923 16.350000243634 0.8249999973923
16.4500002451241 0.82499999739230.050000000745060.77499999664724
0.150000002235170.774999996647240.250000003725290.77499999664724
0.350000005215410.774999996647240.450000006705520.77499999664724
0.550000008195640.774999996647240.650000009685760.77499999664724
0.750000011175870.774999996647240.850000012665990.77499999664724
 0.95000001415610.774999996647241.050000015646220.77499999664724
1.150000017136340.774999996647241.250000018626450.77499999664724
1.350000020116570.774999996647241.450000021606680.77499999664724
 1.55000002309680.774999996647241.650000024586920.77499999664724
1.750000026077030.774999996647241.850000027567150.77499999664724
1.950000029057260.774999996647242.050000030547380.77499999664724
 2.15000003203750.774999996647242.250000033527610.77499999664724
2.350000035017730.774999996647242.450000036507840.77499999664724
2.550000037997960.774999996647242.650000039488080.77499999664724
2.750000040978190.774999996647242.850000042468310.77499999664724
2.950000043958430.774999996647243.050000045448540.77499999664724
3.150000046938660.774999996647243.250000048428770.77499999664724
3.350000049918890.774999996647243.450000051409010.77499999664724
3.550000052899120.774999996647243.650000054389240.77499999664724
3.750000055879350.774999996647243.850000057369470.77499999664724
3.950000058859590.77499999664724 4.05000006034970.77499999664724
4.150000061839820.774999996647244.250000063329940.77499999664724
10.45000015571710.7749999966472410.55000015720730.77499999664724
10.65000015869740.7749999966472410.75000016018750.77499999664724
10.85000016167760.7749999966472410.95000016316770.77499999664724
11.05000016465780.7749999966472411.15000016614790.77499999664724
11.25000016763810.7749999966472411.35000016912820.77499999664724
11.45000017061830.7749999966472411.55000017210840.77499999664724
11.65000017359850.7749999966472411.75000017508860.77499999664724
11.85000017657880.7749999966472411.95000017806890.77499999664724
 12.0500001795590.7749999966472412.15000018104910.77499999664724
12.25000018253920.7749999966472412.35000018402930.77499999664724
12.45000018551950.7749999966472412.55000018700960.77499999664724
12.65000018849970.7749999966472412.75000018998980.77499999664724
12.85000019147990.77499999664724  12.950000192970.77499999664724
13.05000019446020.7749999966472413.15000019595030.77499999664724
13.25000019744040.7749999966472413.35000019893050.77499999664724
13.45000020042060.7749999966472413.55000020191070.77499999664724
13.65000020340090.77499999664724 13.7500002048910.77499999664724
13.85000020638110.7749999966472413.95000020787120.77499999664724
14.05000020936130.7749999966472414.15000021085140.77499999664724
14.25000021234150.7749999966472414.35000021383170.77499999664724
14.45000021532180.7749999966472414.55000021681190.77499999664724
 14.6500002183020.7749999966472414.75000021979210.77499999664724
14.85000022128220.7749999966472414.95000022277240.77499999664724
15.05000022426250.7749999966472415.15000022575260.77499999664724
15.25000022724270.7749999966472415.35000022873280.77499999664724
15.45000023022290.7749999966472415.55000023171310.77499999664724
15.65000023320320.7749999966472415.75000023469330.77499999664724
15.85000023618340.7749999966472415.95000023767350.77499999664724
16.05000023916360.7749999966472416.15000024065380.77499999664724
16.25000024214390.77499999664724 16.3500002436340.77499999664724
16.45000024512410.774999996647240.050000000745060.72499999590218
0.150000002235170.724999995902180.250000003725290.72499999590218
0.350000005215410.724999995902180.450000006705520.72499999590218
0.550000008195640.724999995902180.650000009685760.72499999590218
0.750000011175870.724999995902180.850000012665990.72499999590218
 0.95000001415610.724999995902181.050000015646220.72499999590218
1.150000017136340.724999995902181.250000018626450.72499999590218
1.350000020116570.724999995902181.450000021606680.72499999590218
 1.55000002309680.724999995902181.650000024586920.72499999590218
1.750000026077030.724999995902181.850000027567150.72499999590218
1.950000029057260.724999995902182.050000030547380.72499999590218
 2.15000003203750.724999995902182.250000033527610.72499999590218
2.350000035017730.724999995902182.450000036507840.72499999590218
2.550000037997960.724999995902182.650000039488080.72499999590218
2.750000040978190.724999995902182.850000042468310.72499999590218
2.950000043958430.724999995902183.050000045448540.72499999590218
3.150000046938660.724999995902183.250000048428770.72499999590218
3.350000049918890.724999995902183.450000051409010.72499999590218
3.550000052899120.724999995902183.650000054389240.72499999590218
3.750000055879350.724999995902183.850000057369470.72499999590218
3.950000058859590.72499999590218 4.05000006034970.72499999590218
4.150000061839820.724999995902184.250000063329940.72499999590218
4.350000064820050.72499999590218 10.3500001542270.72499999590218
10.45000015571710.7249999959021810.55000015720730.72499999590218
10.65000015869740.7249999959021810.75000016018750.72499999590218
10.85000016167760.7249999959021810.95000016316770.72499999590218
11.05000016465780.7249999959021811.15000016614790.72499999590218
11.25000016763810.7249999959021811.35000016912820.72499999590218
11.45000017061830.7249999959021811.55000017210840.72499999590218
11.65000017359850.7249999959021811.75000017508860.72499999590218
11.85000017657880.7249999959021811.95000017806890.72499999590218
 12.0500001795590.7249999959021812.15000018104910.72499999590218
12.25000018253920.7249999959021812.35000018402930.72499999590218
12.45000018551950.7249999959021812.55000018700960.72499999590218
12.65000018849970.7249999959021812.75000018998980.72499999590218
12.85000019147990.72499999590218  12.950000192970.72499999590218
13.05000019446020.7249999959021813.15000019595030.72499999590218
13.25000019744040.7249999959021813.35000019893050.72499999590218
13.45000020042060.7249999959021813.55000020191070.72499999590218
13.65000020340090.72499999590218 13.7500002048910.72499999590218
13.85000020638110.7249999959021813.95000020787120.72499999590218
14.05000020936130.7249999959021814.15000021085140.72499999590218
14.25000021234150.7249999959021814.35000021383170.72499999590218
14.45000021532180.7249999959021814.55000021681190.72499999590218
 14.6500002183020.7249999959021814.75000021979210.72499999590218
14.85000022128220.7249999959021814.95000022277240.72499999590218
15.05000022426250.7249999959021815.15000022575260.72499999590218
15.25000022724270.7249999959021815.35000022873280.72499999590218
15.45000023022290.7249999959021815.55000023171310.72499999590218
15.65000023320320.7249999959021815.75000023469330.72499999590218
15.85000023618340.7249999959021815.95000023767350.72499999590218
16.05000023916360.7249999959021816.15000024065380.72499999590218
16.25000024214390.72499999590218 16.3500002436340.72499999590218
16.45000024512410.724999995902180.050000000745060.67499999515712
0.150000002235170.674999995157120.250000003725290.67499999515712
0.350000005215410.674999995157120.450000006705520.67499999515712
0.550000008195640.674999995157120.650000009685760.67499999515712
0.750000011175870.674999995157120.850000012665990.67499999515712
 0.95000001415610.674999995157121.050000015646220.67499999515712
1.150000017136340.674999995157121.250000018626450.67499999515712
1.350000020116570.674999995157121.450000021606680.67499999515712
 1.55000002309680.674999995157121.650000024586920.67499999515712
1.750000026077030.674999995157121.850000027567150.67499999515712
1.950000029057260.674999995157122.050000030547380.67499999515712
 2.15000003203750.674999995157122.250000033527610.67499999515712
2.350000035017730.674999995157122.450000036507840.67499999515712
2.550000037997960.674999995157122.650000039488080.67499999515712
2.750000040978190.674999995157122.850000042468310.67499999515712
2.950000043958430.674999995157123.050000045448540.67499999515712
3.150000046938660.674999995157123.250000048428770.67499999515712
3.350000049918890.674999995157123.450000051409010.67499999515712
3.550000052899120.674999995157123.650000054389240.67499999515712
3.750000055879350.674999995157123.850000057369470.67499999515712
3.950000058859590.67499999515712 4.05000006034970.67499999515712
4.150000061839820.674999995157124.250000063329940.67499999515712
4.350000064820050.674999995157124.450000066310170.67499999515712
10.25000015273690.67499999515712 10.3500001542270.67499999515712
10.45000015571710.6749999951571210.55000015720730.67499999515712
10.65000015869740.6749999951571210.75000016018750.67499999515712
10.85000016167760.6749999951571210.95000016316770.67499999515712
11.05000016465780.6749999951571211.15000016614790.67499999515712
11.25000016763810.6749999951571211.35000016912820.67499999515712
11.45000017061830.6749999951571211.55000017210840.67499999515712
11.65000017359850.6749999951571211.75000017508860.67499999515712
11.85000017657880.6749999951571211.95000017806890.67499999515712
 12.0500001795590.6749999951571212.15000018104910.67499999515712
12.25000018253920.6749999951571212.35000018402930.67499999515712
12.45000018551950.6749999951571212.55000018700960.67499999515712
12.65000018849970.6749999951571212.75000018998980.67499999515712
12.85000019147990.67499999515712  12.950000192970.67499999515712
13.05000019446020.6749999951571213.15000019595030.67499999515712
13.25000019744040.6749999951571213.35000019893050.67499999515712
13.45000020042060.6749999951571213.55000020191070.67499999515712
13.65000020340090.67499999515712 13.7500002048910.67499999515712
13.85000020638110.6749999951571213.95000020787120.67499999515712
14.05000020936130.6749999951571214.15000021085140.67499999515712
14.25000021234150.6749999951571214.35000021383170.67499999515712
14.45000021532180.6749999951571214.55000021681190.67499999515712
 14.6500002183020.6749999951571214.75000021979210.67499999515712
14.85000022128220.6749999951571214.95000022277240.67499999515712
15.05000022426250.6749999951571215.15000022575260.67499999515712
15.25000022724270.6749999951571215.35000022873280.67499999515712
15.45000023022290.6749999951571215.55000023171310.67499999515712
15.65000023320320.6749999951571215.75000023469330.67499999515712
15.85000023618340.6749999951571215.95000023767350.67499999515712
16.05000023916360.6749999951571216.15000024065380.67499999515712
16.25000024214390.67499999515712 16.3500002436340.67499999515712
16.45000024512410.674999995157120.050000000745060.62499999441207
0.150000002235170.624999994412070.250000003725290.62499999441207
0.350000005215410.624999994412070.450000006705520.62499999441207
0.550000008195640.624999994412070.650000009685760.62499999441207
0.750000011175870.624999994412070.850000012665990.62499999441207
 0.95000001415610.624999994412071.050000015646220.62499999441207
1.150000017136340.624999994412071.250000018626450.62499999441207
1.350000020116570.624999994412071.450000021606680.62499999441207
 1.55000002309680.624999994412071.650000024586920.62499999441207
1.750000026077030.624999994412071.850000027567150.62499999441207
1.950000029057260.624999994412072.050000030547380.62499999441207
 2.15000003203750.624999994412072.250000033527610.62499999441207
2.350000035017730.624999994412072.450000036507840.62499999441207
2.550000037997960.624999994412072.650000039488080.62499999441207
2.750000040978190.624999994412072.850000042468310.62499999441207
2.950000043958430.624999994412073.050000045448540.62499999441207
3.150000046938660.624999994412073.250000048428770.62499999441207
3.350000049918890.624999994412073.450000051409010.62499999441207
3.550000052899120.624999994412073.650000054389240.62499999441207
3.750000055879350.624999994412073.850000057369470.62499999441207
3.950000058859590.62499999441207 4.05000006034970.62499999441207
4.150000061839820.624999994412074.250000063329940.62499999441207
4.350000064820050.624999994412074.450000066310170.62499999441207
4.550000067800280.6249999944120710.15000015124680.62499999441207
10.25000015273690.62499999441207 10.3500001542270.62499999441207
10.45000015571710.6249999944120710.55000015720730.62499999441207
10.65000015869740.6249999944120710.75000016018750.62499999441207
10.85000016167760.6249999944120710.95000016316770.62499999441207
11.05000016465780.6249999944120711.15000016614790.62499999441207
11.25000016763810.6249999944120711.35000016912820.62499999441207
11.45000017061830.6249999944120711.55000017210840.62499999441207
11.65000017359850.6249999944120711.75000017508860.62499999441207
11.85000017657880.6249999944120711.95000017806890.62499999441207
 12.0500001795590.6249999944120712.15000018104910.62499999441207
12.25000018253920.6249999944120712.35000018402930.62499999441207
12.45000018551950.6249999944120712.55000018700960.62499999441207
12.65000018849970.6249999944120712.75000018998980.62499999441207
12.85000019147990.62499999441207  12.950000192970.62499999441207
13.05000019446020.6249999944120713.15000019595030.62499999441207
13.25000019744040.6249999944120713.35000019893050.62499999441207
13.45000020042060.6249999944120713.55000020191070.62499999441207
13.65000020340090.62499999441207 13.7500002048910.62499999441207
13.85000020638110.6249999944120713.95000020787120.62499999441207
14.05000020936130.6249999944120714.15000021085140.62499999441207
14.25000021234150.6249999944120714.35000021383170.62499999441207
14.45000021532180.6249999944120714.55000021681190.62499999441207
 14.6500002183020.6249999944120714.75000021979210.62499999441207
14.85000022128220.6249999944120714.95000022277240.62499999441207
15.05000022426250.6249999944120715.15000022575260.62499999441207
15.25000022724270.6249999944120715.35000022873280.62499999441207
15.45000023022290.6249999944120715.55000023171310.62499999441207
15.65000023320320.6249999944120715.75000023469330.62499999441207
15.85000023618340.6249999944120715.95000023767350.62499999441207
16.05000023916360.6249999944120716.15000024065380.62499999441207
16.25000024214390.62499999441207 16.3500002436340.62499999441207
16.45000024512410.624999994412070.050000000745060.57499999366701
0.150000002235170.574999993667010.250000003725290.57499999366701
0.350000005215410.574999993667010.450000006705520.57499999366701
0.550000008195640.574999993667010.650000009685760.57499999366701
0.750000011175870.574999993667010.850000012665990.57499999366701
 0.95000001415610.574999993667011.050000015646220.57499999366701
1.150000017136340.574999993667011.250000018626450.57499999366701
1.350000020116570.574999993667011.450000021606680.57499999366701
 1.55000002309680.574999993667011.650000024586920.57499999366701
1.750000026077030.574999993667011.850000027567150.57499999366701
1.950000029057260.574999993667012.050000030547380.57499999366701
 2.15000003203750.574999993667012.250000033527610.57499999366701
2.350000035017730.574999993667012.450000036507840.57499999366701
2.550000037997960.574999993667012.650000039488080.57499999366701
2.750000040978190.574999993667012.850000042468310.57499999366701
2.950000043958430.574999993667013.050000045448540.57499999366701
3.150000046938660.574999993667013.250000048428770.57499999366701
3.350000049918890.574999993667013.450000051409010.57499999366701
3.550000052899120.574999993667013.650000054389240.57499999366701
3.750000055879350.574999993667013.850000057369470.57499999366701
3.950000058859590.57499999366701 4.05000006034970.57499999366701
4.150000061839820.574999993667014.250000063329940.57499999366701
4.350000064820050.574999993667014.450000066310170.57499999366701
4.550000067800280.57499999366701 4.65000006929040.57499999366701
10.05000014975670.5749999936670110.15000015124680.57499999366701
10.25000015273690.57499999366701 10.3500001542270.57499999366701
10.45000015571710.5749999936670110.55000015720730.57499999366701
10.65000015869740.5749999936670110.75000016018750.57499999366701
10.85000016167760.5749999936670110.95000016316770.57499999366701
11.05000016465780.5749999936670111.15000016614790.57499999366701