Geom Title=Diamond River Base Geometry
Program Version=5.00
Viewing Rectangle= 0.4851 , 0.4952 , 0.9011 , 0.8892 

Junct Name=Upper           
Junct Desc=, 0 , 0 ,-1 ,0
Junct X Y & Text X Y=0.4907893,0.8988792,0.4910009,0.8990762
Up River,Reach=Diamond         ,North           
Dn River,Reach=Diamond         ,Northwest       
Dn River,Reach=Diamond         ,Northeast       
Junc L&A=50,
Junc L&A=50,

Junct Name=Right           
Junct Desc=, 0 , 0 ,-1 ,0
Junct X Y & Text X Y=0.4950883,0.8953352,0.4950883,0.8953352
Up River,Reach=Diamond         ,Northeast       
Dn River,Reach=Diamond         ,Southeast       
Dn River,Reach=Diamond         ,East            
Junc L&A=50,
Junc L&A=50,0

Junct Name=Left            
Junct Desc=, 0 , 0 ,-1 ,0
Junct X Y & Text X Y=0.4866743,0.8954172,0.4860534,0.8955314
Up River,Reach=Diamond         ,Northwest       
Dn River,Reach=Diamond         ,Southwest       
Dn River,Reach=Diamond         ,West            
Junc L&A=50,
Junc L&A=50,0

Junct Name=Lower           
Junct Desc=, 0 , 0 ,-1 ,0
Junct X Y & Text X Y=0.4906821,0.8921478,0.4910198,0.8921952
Up River,Reach=Diamond         ,Southeast       
Up River,Reach=Diamond         ,Southwest       
Dn River,Reach=Diamond         ,South           
Junc L&A=50,
Junc L&A=50,0

River Reach=Diamond         ,North           
Reach XY= 2 
       0.4907893       0.9009692       0.4907893       0.8988792
Rch Text X Y=0.4910922,0.9000302
Reverse River Text= 0 

Type RM Length L Ch R = 1 ,6.0     ,1056,1056,1056
BEGIN DESCRIPTION:
6
                                                                                                                                                                                                                                                              
 XK record is used to define hydraulic table limits and cross-section                                                                                                                                                                                        
END DESCRIPTION:
XS GIS Cut Line=5
0.49081348752952       0.90096920.49079374260746       0.9009692
       0.4907893       0.90096920.49078485739254       0.9009692
0.49076412522437       0.9009692
Node Last Edited Time=Aug/24/2000 09:33:32
#Sta/Elev= 8 
       0      33      10      15     100      13     105       3     140       3
     145      13     240      15     250      33
#Mann= 3 , 0 , 0 
       0     .08       0     100     .03       0     145     .08       0
Bank Sta=100,145
XS Rating Curve= 0 ,0
XS HTab Starting El and Incr=3.5,1, 30 
XS HTab Horizontal Distribution= 5 , 5 , 5 
Exp/Cntr=0.3,0.1

Type RM Length L Ch R = 1 ,5.8     ,1056,1056,1056
XS GIS Cut Line=5
0.490813487529520.900760693623050.490793742607460.90076069362305
       0.49078930.900760693623050.490784857392540.90076069362305
0.490764125224370.90076069362305
Node Last Edited Time=Aug/24/2000 09:33:32
#Sta/Elev= 8 
       0    32.2      10    14.2     100    12.2     105     2.2     140     2.2
     145    12.2     240    14.2     250    32.2
#Mann= 4 , 0 , 0 
       0     .08       0     100     .03       0     145     .08       0
     250     .08       0
Bank Sta=100,145
XS Rating Curve= 0 ,0
XS HTab Starting El and Incr=2.7,1, 30 
XS HTab Horizontal Distribution= 5 , 5 , 5 
Exp/Cntr=0.3,0.1

Type RM Length L Ch R = 1 ,5.6     ,1056,1056,1056
XS GIS Cut Line=5
0.49081348752952 0.90055218724610.49079374260746 0.9005521872461
       0.4907893 0.90055218724610.49078485739254 0.9005521872461
0.49076412522437 0.9005521872461
Node Last Edited Time=Aug/24/2000 09:33:32
#Sta/Elev= 8 
       0    31.4      10    13.4     100    11.4     105     1.4     140     1.4
     145    11.4     240    13.4     250    31.4
#Mann= 4 , 0 , 0 
       0     .08       0     100     .03       0     145     .08       0
     250     .08       0
Bank Sta=100,145
XS Rating Curve= 0 ,0
XS HTab Starting El and Incr=1.9,1, 30 
XS HTab Horizontal Distribution= 5 , 5 , 5 
Exp/Cntr=0.3,0.1

Type RM Length L Ch R = 1 ,5.4     ,1056,1056,1056
XS GIS Cut Line=5
0.490813487529520.900343680869160.490793742607460.90034368086916
       0.49078930.900343680869160.490784857392540.90034368086916
0.490764125224370.90034368086916
Node Last Edited Time=Aug/24/2000 09:33:32
#Sta/Elev= 8 
       0    30.6      10    12.6     100    10.6     105      .6     140      .6
     145    10.6     240    12.6     250    30.6
#Mann= 4 , 0 , 0 
       0     .08       0     100     .03       0     145     .08       0
     250     .08       0
Bank Sta=100,145
XS Rating Curve= 0 ,0
XS HTab Starting El and Incr=1.1,1, 30 
XS HTab Horizontal Distribution= 5 , 5 , 5 
Exp/Cntr=0.3,0.1

Type RM Length L Ch R = 1 ,5.2     ,1056,1056,1056
XS GIS Cut Line=5
0.490813487529520.900135174492210.490793742607460.90013517449221
       0.49078930.900135174492210.490784857392540.90013517449221
0.490764125224370.90013517449221
Node Last Edited Time=Aug/24/2000 09:33:32
#Sta/Elev= 8 
       0    29.8      10    11.8     100     9.8     105     -.2     140     -.2
     145     9.8     240    11.8     250    29.8
#Mann= 4 , 0 , 0 
       0     .08       0     100     .03       0     145     .08       0
     250     .08       0
Bank Sta=100,145
XS Rating Curve= 0 ,0
XS HTab Starting El and Incr=0.3,1, 30 
XS HTab Horizontal Distribution= 5 , 5 , 5 
Exp/Cntr=0.3,0.1

Type RM Length L Ch R = 1 ,5.0     ,1056,1056,1056
BEGIN DESCRIPTION:
5
                                                                                                                                                                                                                                                              

END DESCRIPTION:
XS GIS Cut Line=5
0.490813487529520.899926668115260.490793742607460.89992666811526
       0.49078930.899926668115260.490784857392540.89992666811526
0.490764125224370.89992666811526
Node Last Edited Time=Aug/24/2000 09:33:32
#Sta/Elev= 8 
       0      29      10      11     100       9     105      -1     140      -1
     145       9     240      11     250      29
#Mann= 3 , 0 , 0 
       0     .08       0     100     .03       0     145     .08       0
Bank Sta=100,145
XS Rating Curve= 0 ,0
XS HTab Starting El and Incr=-0.5,1, 30 
XS HTab Horizontal Distribution= 5 , 5 , 5 
Exp/Cntr=0.3,0.1

Type RM Length L Ch R = 1 ,4.8     ,1056,1056,1056
XS GIS Cut Line=5
0.490813487529520.899718161738310.490793742607460.89971816173831
       0.49078930.899718161738310.490784857392540.89971816173831
0.490764125224370.89971816173831
Node Last Edited Time=Aug/24/2000 09:33:32
#Sta/Elev= 8 
       0      29      10      11     100       9     105      -1     140      -1
     145       9     240      11     250      29
#Mann= 4 , 0 , 0 
       0     .08       0     100     .03       0     145     .08       0
     250     .08       0
Bank Sta=100,145
XS Rating Curve= 0 ,0
XS HTab Starting El and Incr=-0.5,1, 30 
XS HTab Horizontal Distribution= 5 , 5 , 5 
Exp/Cntr=0.3,0.1

Type RM Length L Ch R = 1 ,4.6     ,1056,1056,1056
XS GIS Cut Line=5
0.490813487529520.899509655361360.490793742607460.89950965536136
       0.49078930.899509655361360.490784857392540.89950965536136
0.490764125224370.89950965536136
Node Last Edited Time=Aug/24/2000 09:33:32
#Sta/Elev= 8 
       0      29      10      11     100       9     105      -1     140      -1
     145       9     240      11     250      29
#Mann= 4 , 0 , 0 
       0     .08       0     100     .03       0     145     .08       0
     250     .08       0
Bank Sta=100,145
XS Rating Curve= 0 ,0
XS HTab Starting El and Incr=-0.5,1, 30 
XS HTab Horizontal Distribution= 5 , 5 , 5 
Exp/Cntr=0.3,0.1

Type RM Length L Ch R = 1 ,4.4     ,1056,1056,1056
XS GIS Cut Line=5
0.490813487529520.899301148984410.490793742607460.89930114898441
       0.49078930.899301148984410.490784857392540.89930114898441
0.490764125224370.89930114898441
Node Last Edited Time=Aug/24/2000 09:33:32
#Sta/Elev= 8 
       0      29      10      11     100       9     105      -1     140      -1
     145       9     240      11     250      29
#Mann= 4 , 0 , 0 
       0     .08       0     100     .03       0     145     .08       0
     250     .08       0
Bank Sta=100,145
XS Rating Curve= 0 ,0
XS HTab Starting El and Incr=-0.5,1, 30 
XS HTab Horizontal Distribution= 5 , 5 , 5 
Exp/Cntr=0.3,0.1

Type RM Length L Ch R = 1 ,4.2     ,1056,1056,1056
XS GIS Cut Line=5
0.490813487529520.899092642607460.490793742607460.89909264260746
       0.49078930.899092642607460.490784857392540.89909264260746
0.490764125224370.89909264260746
Node Last Edited Time=Aug/24/2000 09:33:32
#Sta/Elev= 8 
       0      29      10      11     100       9     105      -1     140      -1
     145       9     240      11     250      29
#Mann= 4 , 0 , 0 
       0     .08       0     100     .03       0     145     .08       0
     250     .08       0
Bank Sta=100,145
XS Rating Curve= 0 ,0
XS HTab Starting El and Incr=-0.5,1, 30 
XS HTab Horizontal Distribution= 5 , 5 , 5 
Exp/Cntr=0.3,0.1

Type RM Length L Ch R = 1 ,4.0     ,0,5280,0
BEGIN DESCRIPTION:
4
                                                                                                                                                                                                                                                              

END DESCRIPTION:
XS GIS Cut Line=5
0.490813487529520.898884136230520.490793742607460.89888413623052
       0.49078930.898884136230520.490784857392540.89888413623052
0.490764125224370.89888413623052
Node Last Edited Time=Aug/24/2000 09:33:32
#Sta/Elev= 8 
       0      29      10      11     100       9     105      -1     140      -1
     145       9     240      11     250      29
#Mann= 3 , 0 , 0 
       0     .08       0     100     .03       0     145     .08       0
Bank Sta=100,145
XS Rating Curve= 0 ,0
XS HTab Starting El and Incr=-0.5,1, 30 
XS HTab Horizontal Distribution= 5 , 5 , 5 
Exp/Cntr=0.3,0.1

River Reach=Diamond         ,Northwest       
Reach XY= 2 
       0.4907893       0.8988792       0.4866743       0.8954172
Rch Text X Y=0.4878731,0.8977872
Reverse River Text=-1 

Type RM Length L Ch R = 1 ,4.0     ,880,880,880
BEGIN DESCRIPTION:
4
                                                                                                                                                                                                                                                              
 Downstream Boundary of reach 1 connects to reach 2 and 5.                                                                                                                                                                                                   
END DESCRIPTION:
XS GIS Cut Line=5
 0.49089855850340.898678302891160.490780803401360.89881826887755
 0.49075430850340.898849761224490.490727813605440.89888125357143
 0.49060417074830.89902821785714
Node Last Edited Time=Aug/24/2000 09:33:32
#Sta/Elev= 8 
       0      29      10      11     100       9     105      -1     140      -1
     145       9     240      11     250      29
#Mann= 3 , 0 , 0 
       0     .08       0     100     .03       0     145     .08       0
Bank Sta=100,145
XS Rating Curve= 0 ,0
XS HTab Starting El and Incr=-0.5,1, 30 
XS HTab Horizontal Distribution= 5 , 5 , 5 
Exp/Cntr=0.3,0.1

Type RM Length L Ch R = 1 ,3.8     ,880,880,880
XS GIS Cut Line=5
0.48966685782313 0.89764205799320.489549102721090.89778202397959
0.489522607823130.897813516326530.489496112925170.89784500867347
0.489372470068030.89799197295918
Node Last Edited Time=Aug/24/2000 09:33:32
#Sta/Elev= 8 
       0      29      10      11     100       9     105      -1     140      -1
     145       9     240      11     250      29
#Mann= 4 , 0 , 0 
       0     .08       0     100     .03       0     145     .08       0
     250     .08       0
Bank Sta=100,145
XS Rating Curve= 0 ,0
XS HTab Starting El and Incr=-0.5,1, 30 
XS HTab Horizontal Distribution= 5 , 5 , 5 
Exp/Cntr=0.3,0.1

Type RM Length L Ch R = 1 ,3.6     ,880,880,880
XS GIS Cut Line=5
0.488435157142860.896605813095240.488317402040820.89674577908163
0.488290907142860.89677727142857 0.48826441224490.89680876377551
0.488140769387760.89695572806122
Node Last Edited Time=Aug/24/2000 09:33:32
#Sta/Elev= 8 
       0      29      10      11     100       9     105      -1     140      -1
     145       9     240      11     250      29
#Mann= 4 , 0 , 0 
       0     .08       0     100     .03       0     145     .08       0
     250     .08       0
Bank Sta=100,145
XS Rating Curve= 0 ,0
XS HTab Starting El and Incr=-0.5,1, 30 
XS HTab Horizontal Distribution= 5 , 5 , 5 
Exp/Cntr=0.3,0.1

Type RM Length L Ch R = 1 ,3.4     ,50,50,50
BEGIN DESCRIPTION:
3.4
                                                                                                                                                                                                                                                              
 The default for the program is to use a family of rating curves, rather                                                                                                                                                                                   
END DESCRIPTION:
XS GIS Cut Line=5
0.487203456462590.895569568197280.487085701360540.89570953418367
0.487059206462590.895741026530610.487032711564630.89577251887755
0.486909068707480.89591948316327
Node Last Edited Time=Aug/24/2000 09:33:32
#Sta/Elev= 8 
       0      29      10      11     100       9     105      -1     140      -1
     145       9     240      11     250      29
#Mann= 3 , 0 , 0 
       0     .08       0     100     .03       0     145     .08       0
#XS Ineff= 2 , 0 
       0     100    20.5     145       0    20.5
Permanent Ineff=
       F       F
Bank Sta=100,145
XS Rating Curve= 0 ,0
XS HTab Starting El and Incr=-0.5,1, 30 
XS HTab Horizontal Distribution= 5 , 5 , 5 
Exp/Cntr=0.3,0.1

Type RM Length L Ch R = 2 ,3.395   ,,,
Node Last Edited Time=Aug/24/2000 09:33:32
Bridge Culvert--1,0,-1,-1, 0 
Deck Dist Width WeirC Skew NumUp NumDn MinLoCord MaxHiCord MaxSubmerge Is_Ogee
20,10,2.6,0, 2, 2, , , 0.95, 0, 1,1,,
       0     250
      20      20
                
       0     250
      20      20
                
Culvert=1,6,,30,0.025,0.5,1,2,1,3,122.5,3,122.5,Culvert #1  , 0 ,10
Culvert Bottom n=0.025
BC Design=,, 0 ,, 0 ,,,,,,
BC HTab HWMax=20
BC HTab TWMax=20
BC Use User HTab Curves=0
BC User HTab FreeFlow(D)= 0 

Type RM Length L Ch R = 1 ,3.39    ,200,200,200
BEGIN DESCRIPTION:
3.39
This is a REPEATED section.
                                                                                                                                                                                                                                                              
 The next three records desribe a circular culvert crossing, between sections                                                                                                                                                
END DESCRIPTION:
XS GIS Cut Line=5
0.487133473469390.895510690646260.487015718367350.89565065663265
0.486989223469390.895682148979590.486962728571430.89571364132653
0.486839085714290.89586060561225
Node Last Edited Time=Aug/24/2000 09:33:32
#Sta/Elev= 8 
       0      29      10      11     100       9     105      -1     140      -1
     145       9     240      11     250      29
#Mann= 3 , 0 , 0 
       0     .08       0     100     .03       0     145     .08       0
#XS Ineff= 2 , 0 
       0     100      19     145       0      19
Permanent Ineff=
       F       F
Bank Sta=100,145
XS Rating Curve= 0 ,0
XS HTab Starting El and Incr=-0.5,1, 30 
XS HTab Horizontal Distribution= 5 , 5 , 5 
Exp/Cntr=0.3,0.1

Type RM Length L Ch R = 1 ,3.35    ,4000,4000,4000
BEGIN DESCRIPTION:
3.39
This is a REPEATED section.
                                                                                                                                                                                                                                                              
 The next three records desribe a circular culvert crossing, between sections                                                                                                                                                
END DESCRIPTION:
XS GIS Cut Line=5
 0.48685354149660.895275180442180.486735786394560.89541514642857
 0.48670929149660.895446638775510.486682796598640.89547813112245
 0.48655915374150.89562509540816
Node Last Edited Time=Aug/24/2000 09:33:32
#Sta/Elev= 8 
       0      29      10      11     100       9     105      -1     140      -1
     145       9     240      11     250      29
#Mann= 3 , 0 , 0 
       0     .08       0     100     .03       0     145     .08       0
#XS Ineff= 2 , 0 
       0     100      19     145       0      19
Permanent Ineff=
       F       F
Bank Sta=100,145
XS Rating Curve= 0 ,0
XS HTab Starting El and Incr=-0.5,1, 30 
XS HTab Horizontal Distribution= 5 , 5 , 5 
Exp/Cntr=0.3,0.1

River Reach=Diamond         ,Northeast       
Reach XY= 2 
       0.4907893       0.8988792       0.4950883       0.8953352
Rch Text X Y=0.4929344,0.8976355
Reverse River Text= 0 

Type RM Length L Ch R = 1 ,3.9999  ,1173.33,1173.33,1173.33
BEGIN DESCRIPTION:
3.9999
                                                                                                                                                                                                                                                              
 The downstream boundary of reach 4 is reach 8.                                                                                                                                                                                                         
END DESCRIPTION:
XS GIS Cut Line=5
0.490840347742850.898920484519780.490806945196640.89887996602482
0.490799429623740.898870849363450.490791914050840.89886173270208
0.490756841377320.89881918828237
Node Last Edited Time=Aug/24/2000 09:33:32
#Sta/Elev= 8 
       0      29      10      11     100       9     105      -1     140      -1
     145       9     240      11     250      29
#Mann= 3 , 0 , 0 
       0     .08       0     100     .03       0     145     .08       0
Bank Sta=100,145
XS Rating Curve= 0 ,0
XS HTab Starting El and Incr=-0.5,1, 30 
XS HTab Horizontal Distribution= 5 , 5 , 5 
Exp/Cntr=0.3,0.1

Type RM Length L Ch R = 1 ,3.77768 ,1173.33,1173.33,1173.33
XS GIS Cut Line=5
0.491315763382020.898528562439010.491282360835810.89848804394405
0.491274845262910.898478927282680.491267329690010.89846981062131
0.49123225701649 0.8984272662016
Node Last Edited Time=Aug/24/2000 09:33:32
#Sta/Elev= 8 
       0      29      10      11     100       9     105      -1     140      -1
     145       9     240      11     250      29
#Mann= 4 , 0 , 0 
       0     .08       0     100     .03       0     145     .08       0
     250     .08       0
Bank Sta=100,145
XS Rating Curve= 0 ,0
XS HTab Starting El and Incr=-0.5,1, 30 
XS HTab Horizontal Distribution= 5 , 5 , 5 
Exp/Cntr=0.3,0.1

Type RM Length L Ch R = 1 ,3.55547 ,1173.33,1173.33,1173.33
XS GIS Cut Line=5
0.491791179021190.898136640358250.491757776474980.89809612186328
0.491750260902080.898087005201920.491742745329180.89807788854055
0.491707672655660.89803534412084
Node Last Edited Time=Aug/24/2000 09:33:32
#Sta/Elev= 8 
       0      29      10      11     100       9     105      -1     140      -1
     145       9     240      11     250      29
#Mann= 4 , 0 , 0 
       0     .08       0     100     .03       0     145     .08       0
     250     .08       0
Bank Sta=100,145
XS Rating Curve= 0 ,0
XS HTab Starting El and Incr=-0.5,1, 30 
XS HTab Horizontal Distribution= 5 , 5 , 5 
Exp/Cntr=0.3,0.1

Type RM Length L Ch R = 1 ,3.33326 ,1173.33,1173.33,1173.33
XS GIS Cut Line=5
0.492266594660350.897744718277480.492233192114140.89770419978252
0.492225676541250.897695083121150.492218160968350.89768596645978
0.492183088294830.89764342204007
Node Last Edited Time=Aug/24/2000 09:33:32
#Sta/Elev= 8 
       0      29      10      11     100       9     105      -1     140      -1
     145       9     240      11     250      29
#Mann= 4 , 0 , 0 
       0     .08       0     100     .03       0     145     .08       0
     250     .08       0
Bank Sta=100,145
XS Rating Curve= 0 ,0
XS HTab Starting El and Incr=-0.5,1, 30 
XS HTab Horizontal Distribution= 5 , 5 , 5 
Exp/Cntr=0.3,0.1

Type RM Length L Ch R = 1 ,3.11105 ,1173.33,1173.33,1173.33
XS GIS Cut Line=5
0.492742010299520.897352796196720.492708607753310.89731227770175
0.492701092180420.897303161040380.492693576607520.89729404437902
  0.492658503934 0.8972514999593
Node Last Edited Time=Aug/24/2000 09:33:32
#Sta/Elev= 8 
       0      29      10      11     100       9     105      -1     140      -1
     145       9     240      11     250      29
#Mann= 4 , 0 , 0 
       0     .08       0     100     .03       0     145     .08       0
     250     .08       0
Bank Sta=100,145
XS Rating Curve= 0 ,0
XS HTab Starting El and Incr=-0.5,1, 30 
XS HTab Horizontal Distribution= 5 , 5 , 5 
Exp/Cntr=0.3,0.1

Type RM Length L Ch R = 1 ,2.88884 ,1173.33,1173.33,1173.33
XS GIS Cut Line=5
0.493217425938690.896960874115950.493184023392480.89692035562098
0.493176507819580.896911238959620.493168992246690.89690212229825
0.493133919573170.89685957787854
Node Last Edited Time=Aug/24/2000 09:33:32
#Sta/Elev= 8 
       0      29      10      11     100       9     105      -1     140      -1
     145       9     240      11     250      29
#Mann= 4 , 0 , 0 
       0     .08       0     100     .03       0     145     .08       0
     250     .08       0
Bank Sta=100,145
XS Rating Curve= 0 ,0
XS HTab Starting El and Incr=-0.5,1, 30 
XS HTab Horizontal Distribution= 5 , 5 , 5 
Exp/Cntr=0.3,0.1

Type RM Length L Ch R = 1 ,2.66663 ,1173.33,1173.33,1173.33
XS GIS Cut Line=5
0.493692841577860.896568952035180.493659439031650.89652843354022
0.493651923458750.896519316878850.493644407885860.89651020021748
0.493609335212340.89646765579777
Node Last Edited Time=Aug/24/2000 09:33:32
#Sta/Elev= 8 
       0      29      10      11     100       9     105      -1     140      -1
     145       9     240      11     250      29
#Mann= 4 , 0 , 0 
       0     .08       0     100     .03       0     145     .08       0
     250     .08       0
Bank Sta=100,145
XS Rating Curve= 0 ,0
XS HTab Starting El and Incr=-0.5,1, 30 
XS HTab Horizontal Distribution= 5 , 5 , 5 
Exp/Cntr=0.3,0.1

Type RM Length L Ch R = 1 ,2.44442 ,1173.33,1173.33,1173.33
XS GIS Cut Line=5
0.494168257217030.896177029954420.494134854670820.89613651145945
0.494127339097920.896127394798090.494119823525020.89611827813672
 0.4940847508515  0.896075733717
Node Last Edited Time=Aug/24/2000 09:33:32
#Sta/Elev= 8 
       0      29      10      11     100       9     105      -1     140      -1
     145       9     240      11     250      29
#Mann= 4 , 0 , 0 
       0     .08       0     100     .03       0     145     .08       0
     250     .08       0
Bank Sta=100,145
XS Rating Curve= 0 ,0
XS HTab Starting El and Incr=-0.5,1, 30 
XS HTab Horizontal Distribution= 5 , 5 , 5 
Exp/Cntr=0.3,0.1

Type RM Length L Ch R = 1 ,2.22221 ,1173.33,1173.33,1173.33
XS GIS Cut Line=5
 0.49464367285620.895785107873650.494610270309990.89574458937869
0.494602754737090.895735472717320.494595239164190.89572635605595
0.494560166490670.89568381163624
Node Last Edited Time=Aug/24/2000 09:33:32
#Sta/Elev= 8 
       0      29      10      11     100       9     105      -1     140      -1
     145       9     240      11     250      29
#Mann= 4 , 0 , 0 
       0     .08       0     100     .03       0     145     .08       0
     250     .08       0
Bank Sta=100,145
XS Rating Curve= 0 ,0
XS HTab Starting El and Incr=-0.5,1, 30 
XS HTab Horizontal Distribution= 5 , 5 , 5 
Exp/Cntr=0.3,0.1

Type RM Length L Ch R = 1 ,2.0     ,0,10560,0
BEGIN DESCRIPTION:
2
This is a REPEATED section.
                                                                                                                                                                                                                                                              

END DESCRIPTION:
XS GIS Cut Line=5
0.495119088495370.895393185792890.495085685949160.89535266729792
0.495078170376260.895343550636550.495070654803360.89533443397519
0.495035582129840.89529188955547
Node Last Edited Time=Aug/24/2000 09:33:32
#Sta/Elev= 8 
       0      29      10      11     100       9     105      -1     140      -1
     145       9     240      11     250      29
#Mann= 3 , 0 , 0 
       0     .08       0     100     .03       0     145     .08       0
Bank Sta=100,145
XS Rating Curve= 0 ,0
XS HTab Starting El and Incr=-0.5,1, 30 
XS HTab Horizontal Distribution= 5 , 5 , 5 
Exp/Cntr=0.3,0.1

River Reach=Diamond         ,Southeast       
Reach XY= 2 
       0.4950883       0.8953352       0.4906821       0.8921478
Rch Text X Y=0.493124,0.8937116
Reverse River Text=-1 

Type RM Length L Ch R = 1 ,2.0     ,560,560,560
BEGIN DESCRIPTION:
2
                                                                                                                                                                                                                                                              
 Downstream boundary of reach 6 is storage area number 1.                                                                                                                                                                                                    
END DESCRIPTION:
XS GIS Cut Line=5
0.49511471861452  0.895276816918 0.49508467714420.89531834566447
0.495077917813380.895327689632420.495071158482560.89533703360038
0.495039614938740.89538063878417
Node Last Edited Time=Aug/24/2000 09:33:32
#Sta/Elev= 8 
       0      29      10      11     100       9     105      -1     140      -1
     145       9     240      11     250      29
#Mann= 3 , 0 , 0 
       0     .08       0     100     .03       0     145     .08       0
Bank Sta=100,145
XS Rating Curve= 0 ,0
XS HTab Starting El and Incr=-0.5,1, 30 
XS HTab Horizontal Distribution= 5 , 5 , 5 
Exp/Cntr=0.3,0.1

Type RM Length L Ch R = 1 ,1.9     ,1250,1250,1250
BEGIN DESCRIPTION:
1.9
This is a REPEATED section.
                                                                                                                                                                                                                                                              
 The next four records describe a special connection from rech 7 to storage                                                                                                                                                   
END DESCRIPTION:
XS GIS Cut Line=5
0.494882157634310.89510858468426  0.4948521161640.89515011343073
0.494845356833180.895159457398680.494838597502360.89516880136664
0.494807053958530.89521240655042
Node Last Edited Time=Aug/24/2000 09:33:32
#Sta/Elev= 8 
       0      29      10      11     100       9     105      -1     140      -1
     145       9     240      11     250      29
#Mann= 3 , 0 , 0 
       0     .08       0     100     .03       0     145     .08       0
Bank Sta=100,145
XS Rating Curve= 0 ,0
XS HTab Starting El and Incr=-0.5,1, 30 
XS HTab Horizontal Distribution= 5 , 5 , 5 
Exp/Cntr=0.3,0.1

Type RM Length L Ch R = 6 ,1.78125 ,,,
Node Last Edited Time=Jun/17/2002 14:17:12
Lateral Weir Pos= 3 
Lateral Weir End=                ,                ,        ,Eagle Lake      
Lateral Weir Distance=0
Lateral Weir TW Multiple XS=0
Lateral Weir WD=10
Lateral Weir Coef=2
Lateral Weir WSCriteria=-1 
Lateral Weir Flap Gates= 0 
Lateral Weir Hagers EQN= 0 ,,,,,
Lateral Weir SS=0.05,0.05,
Lateral Weir Type= 0 
Lateral Weir Connection Pos and Dist= 1 ,
Lateral Weir SE= 2 
       0      17     100      17
Lateral Weir Centerline= 0 
LW Culv=1,6,,20,0.022,0.5,1,2,1,8,8, 1 ,Culvert #1  , 0 ,0
      50      50
LW Culv Bottom n=0.022
LW Div RC= 0 ,False,

Type RM Length L Ch R = 1 ,1.6625  ,1250,1250,1250
XS GIS Cut Line=5
0.494363048303490.894733066305370.494333006833180.89477459505184
0.494326247502360.894783939019790.494319488171540.89479328298775
0.494287944627710.89483688817154
Node Last Edited Time=Aug/24/2000 09:33:32
#Sta/Elev= 8 
       0      29      10      11     100       9     105      -1     140      -1
     145       9     240      11     250      29
#Mann= 4 , 0 , 0 
       0     .08       0     100     .03       0     145     .08       0
     250     .08       0
Bank Sta=100,145
XS Rating Curve= 0 ,0
XS HTab Starting El and Incr=-0.5,1, 30 
XS HTab Horizontal Distribution= 5 , 5 , 5 
Exp/Cntr=0.3,0.1

Type RM Length L Ch R = 1 ,1.425   ,1250,1250,1250
XS GIS Cut Line=5
0.493843938972670.894357547926480.493813897502360.89439907667295
0.493807138171540.894408420640910.493800378840720.89441776460886
0.493768835296890.89446136979265
Node Last Edited Time=Aug/24/2000 09:33:32
#Sta/Elev= 8 
       0      29      10      11     100       9     105      -1     140      -1
     145       9     240      11     250      29